                                  MODFLOW-NWT-SWR1 
      U.S. GEOLOGICAL SURVEY MODULAR FINITE-DIFFERENCE GROUNDWATER-FLOW MODEL
                             VERSION 1.1.4 4/01/2018
                    BASED ON MODFLOW-2005 VERSION 1.12.00 02/03/2017

 LIST FILE: pollock_88_ex2.list
                         UNIT    2

 OPENING pollock_88_ex2.dis
 FILE TYPE:DIS   UNIT   11   STATUS:OLD    
 FORMAT:FORMATTED              ACCESS:SEQUENTIAL          

 OPENING pollock_88_ex2.upw
 FILE TYPE:UPW   UNIT   31   STATUS:OLD    
 FORMAT:FORMATTED              ACCESS:SEQUENTIAL          

 OPENING pollock_88_ex2.bas
 FILE TYPE:BAS6   UNIT   13   STATUS:OLD    
 FORMAT:FORMATTED              ACCESS:SEQUENTIAL          

 OPENING pollock_88_ex2.oc
 FILE TYPE:OC   UNIT   14   STATUS:OLD    
 FORMAT:FORMATTED              ACCESS:SEQUENTIAL          

 OPENING pollock_88_ex2.chd
 FILE TYPE:CHD   UNIT   24   STATUS:OLD    
 FORMAT:FORMATTED              ACCESS:SEQUENTIAL          

 OPENING pollock_88_ex2.nwt
 FILE TYPE:NWT   UNIT   32   STATUS:OLD    
 FORMAT:FORMATTED              ACCESS:SEQUENTIAL          

 OPENING pollock_88_ex2.cbc
 FILE TYPE:DATA(BINARY)   UNIT   53   STATUS:REPLACE
 FORMAT:BINARY                 ACCESS:SEQUENTIAL          

 OPENING pollock_88_ex2.hds
 FILE TYPE:DATA(BINARY)   UNIT   51   STATUS:REPLACE
 FORMAT:BINARY                 ACCESS:SEQUENTIAL          

 BAS -- BASIC PACKAGE, VERSION 1.1.4, 4/01/2018 INPUT READ FROM UNIT   13
 
 MODFLOW was compiled using mixed precision
 Precision of REAL variables:           6
 Precision of DOUBLE PRECISION variables:          15

 DISCRETIZATION INPUT DATA READ FROM UNIT   11
 # DIS package for  MODFLOW-NWT, generated by Flopy.
    1 LAYERS        11 ROWS        21 COLUMNS
   30 STRESS PERIOD(S) IN SIMULATION
 MODEL TIME UNIT IS DAYS
 MODEL LENGTH UNIT IS METERS
  Confining bed flag for each layer:
   0

                     DELR =   5.00000    

                     DELC =   5.00000    



           TOP ELEVATION OF LAYER 1
 READING ON UNIT   11 WITH FORMAT: (21E15.6)           



             MODEL LAYER BOTTOM EL. FOR LAYER   1
 READING ON UNIT   11 WITH FORMAT: (21E15.6)           


 STRESS PERIOD     LENGTH       TIME STEPS     MULTIPLIER FOR DELT    SS FLAG
 ----------------------------------------------------------------------------
        1         2.180000          1                    1.000         TR
        2         2.180000          1                    1.000         TR
        3         2.180000          1                    1.000         TR
        4         2.180000          1                    1.000         TR
        5         2.180000          1                    1.000         TR
        6         2.180000          1                    1.000         TR
        7         2.180000          1                    1.000         TR
        8         2.180000          1                    1.000         TR
        9         2.180000          1                    1.000         TR
       10         2.180000          1                    1.000         TR
       11         2.180000          1                    1.000         TR
       12         2.180000          1                    1.000         TR
       13         2.180000          1                    1.000         TR
       14         2.180000          1                    1.000         TR
       15         2.180000          1                    1.000         TR
       16         2.180000          1                    1.000         TR
       17         2.180000          1                    1.000         TR
       18         2.180000          1                    1.000         TR
       19         2.180000          1                    1.000         TR
       20         2.180000          1                    1.000         TR
       21         2.180000          1                    1.000         TR
       22         2.180000          1                    1.000         TR
       23         2.180000          1                    1.000         TR
       24         2.180000          1                    1.000         TR
       25         2.180000          1                    1.000         TR
       26         2.180000          1                    1.000         TR
       27         2.180000          1                    1.000         TR
       28         2.180000          1                    1.000         TR
       29         2.180000          1                    1.000         TR
       30         2.180000          1                    1.000         TR

 TRANSIENT SIMULATION



 
 # BAS6 package for  MODFLOW-NWT, generated by Flopy.                            
 THE FREE FORMAT OPTION HAS BEEN SELECTED



                     BOUNDARY ARRAY FOR LAYER   1
 READING ON UNIT   13 WITH FORMAT: (21I10)             

 AQUIFER HEAD WILL BE SET TO  -999.99     AT ALL NO-FLOW NODES (IBOUND=0).



                       INITIAL HEAD FOR LAYER   1
 READING ON UNIT   13 WITH FORMAT: (21E15.6)           
 # OC package for  MODFLOW-NWT, generated by Flopy.

 OUTPUT CONTROL IS SPECIFIED ONLY AT TIME STEPS FOR WHICH OUTPUT IS DESIRED
 COMPACT CELL-BY-CELL BUDGET FILES WILL BE WRITTEN
 AUXILIARY DATA WILL BE SAVED IN CELL-BY-CELL BUDGET FILES
 HEAD PRINT FORMAT CODE IS   0    DRAWDOWN PRINT FORMAT CODE IS   0
 HEADS WILL BE SAVED ON UNIT   51    DRAWDOWNS WILL BE SAVED ON UNIT    0
 # NWT package for  MODFLOW-NWT, generated by Flopy.

 NWT1 -- Newton Solver, VERSION 1.1.4, 4/01/2018
         INPUT READ FROM UNIT 32

 COMPLEX OPTION:
 DEFAULT SOLVER INPUT VALUES REFLECT STRONGLY NONLINEAR MODEL
 ***XMD linear solver will be used***
 
   CONVERGENCE CRITERION OF   0.100000E-01 FOR HEAD SOLUTION
   AND A TOLERANCE OF   0.500000E+03 FOR FLOW SOLUTION AND 
   A MAXIMUM OF  5000 OUTER ITERATIONS. 


   D-B-D REDUCTION FACTOR OF    0.850000E+00 AND 
   A D-B-D INCREASE FACTOR OF    0.100000E-04 AND 
   A D-B-D RELAXATION OF    0.000000E+00 AND 
   A MOMENTUM FACTOR OF    0.100000E+00 .


   BACKTRACKING IS ACTIVE 
   THE MAXIMUM NUMBER OF BACKTRACKS IS    50 AND 
   THE BACKTRACKING TOLERANCE IS    0.110000E+01 AND
   THE BACKTRACKING REDUCTION FACTOR IS    0.700000E+00

 XMD -- LINEAR SOLUTION BY XMD PACKAGE VERSION 1.30
     BY MOTOMU IBARAKI, OHIO STATE UNIVERSITY, COLOMBUS, OH
                 INPUT READ FROM UNIT 32
 ACCELERATION METHOD                    (IACL) =         2
 NODE ORDERING FLAG                   (NORDER) =         0
 LEVEL OF FILL                         (LEVEL) =        15
 MAXIMUM NUMBER OF ORTHOGONALIZATIONS  (NORTH) =         1
 INDEX FOR USING REDUCED SYSTEM      (IREDSYS) =         1
 RESID. REDUCTION CONVERGE CRITERION  (RRCTOL) =  0.000000E+00
 INDEX FOR USING DROP TOLERANCE     (IDROPTOL) =         1
 DROP TOLERANCE VALUE                  (EPSRN) =  0.100000E-02
 CONVERGENCE CRITERIA OF           (HCLOSEXMD) =  0.100000E-03
 MAX. NUMBER OF LINEAR ITERATIONS  (MXITERXMD) =       200


 UPW1 -- UPSTREAM WEIGHTING FLOW PACKAGE, VERSION 1.1.4, 4/01/2018
         INPUT READ FROM UNIT 31

 # UPW package for  MODFLOW-NWT, generated by Flopy.
 CELL-BY-CELL FLOWS WILL BE SAVED ON UNIT   53
 No named parameters

   LAYER FLAGS:
 LAYER       LAYTYP          LAYAVG    CHANI           LAYVKA           LAYWET
 ---------------------------------------------------------------------------
    1             0             0     1.000E+00             0             0

   INTERPRETATION OF LAYER FLAGS:
                        INTERBLOCK     HORIZONTAL    DATA IN
         LAYER TYPE   TRANSMISSIVITY   ANISOTROPY   ARRAY VKA   WETTABILITY
 LAYER   (LAYTYP)        (LAYAVG)      (CHANI)     (LAYVKA)       (LAYWET)
 ---------------------------------------------------------------------------
    1      CONFINED      HARMONIC     1.000E+00    VERTICAL K  NON-WETTABLE



              HYD. COND. ALONG ROWS FOR LAYER   1
 READING ON UNIT   31 WITH FORMAT: (21E15.6)           

      VERTICAL HYD. COND. =   1.00000     FOR LAYER   1

         SPECIFIC STORAGE =  1.000000E-05 FOR LAYER   1

 CHD -- TIME-VARIANT SPECIFIED-HEAD OPTION, VERSION 7, 5/2/2005
 INPUT READ FROM UNIT   24
 # CHD package for  MODFLOW-NWT, generated by Flopy.
 No named parameters
 MAXIMUM OF     20 TIME-VARIANT SPECIFIED-HEAD CELLS AT ONE TIME


     0 TIME-VARIANT SPECIFIED-HEAD PARAMETERS
1
                            STRESS PERIOD NO.    1, LENGTH =   2.180000    
                            -----------------------------------------------

                              NUMBER OF TIME STEPS =     1

                               MULTIPLIER FOR DELT =     1.000

                            INITIAL TIME STEP SIZE =   2.180000    

 CHD NO.   LAYER   ROW   COL    START HEAD        END HEAD         
 ------------------------------------------------------------------
      1      1      1      1       55.00           55.00    
      2      1      1      2       55.00           55.00    
      3      1      1      3       55.00           55.00    
      4      1      1      4       55.00           55.00    
      5      1      1      5       55.00           55.00    
      6      1      1      6       55.00           55.00    
      7      1      1      7       55.00           55.00    
      8      1      1      8       55.00           55.00    
      9      1      1      9       55.00           55.00    
     10      1      1     10       55.00           55.00    
     11      1      6     12       25.00           25.00    
     12      1      6     13       25.00           25.00    
     13      1      6     14       25.00           25.00    
     14      1      6     15       25.00           25.00    
     15      1      6     16       25.00           25.00    
     16      1      6     17       25.00           25.00    
     17      1      6     18       25.00           25.00    
     18      1      6     19       25.00           25.00    
     19      1      6     20       25.00           25.00    
     20      1      6     21       25.00           25.00    


     20 TIME-VARIANT SPECIFIED-HEAD CELLS
 
 SOLVING FOR HEAD 
                                                   Max.-Head-Change                        Max.-Flux-Residual
  Residual-Control   Outer-Iter.   Inner-Iter.     Column Row Layer    Max.-Head-Change    Column Row Layer    Max.-Flux-Residual            L2-New               L2-Old           Solver-Max-Delh
          0                 1           4            21    7     1      -0.3283020592E+02      12    7    1      -0.2454545517E+04      0.7761954454E+04      0.0000000000E+00     -0.3283020592E+02
          0                 2           3            21    7     1       0.2835336080E+01      18    7    1       0.2454545554E+03      0.7761954570E+03      0.7761954454E+04      0.2835336080E+01
          0                 3           3            21    7     1       0.1417682243E+00      20    7    1       0.1227272155E+02      0.3880975317E+02      0.7761954570E+03      0.1417682243E+00
          0                 4           2            21    7     1       0.7087065996E-02      20    7    1       0.6135130396E+00      0.1940098577E+01      0.3880975317E+02      0.7087065996E-02

    ------------------------------------------------
       NWT REQUIRED            4 OUTER ITERATIONS 
       AND A TOTAL OF         12 INNER ITERATIONS.
    ------------------------------------------------

 OUTPUT CONTROL FOR STRESS PERIOD    1   TIME STEP    1
    SAVE HEAD FOR ALL LAYERS
    SAVE BUDGET
 UBDSV1 SAVING "         STORAGE" ON UNIT  53 AT TIME STEP  1, STRESS PERIOD   1
 UBDSV2 SAVING "   CONSTANT HEAD" ON UNIT  53 AT TIME STEP  1, STRESS PERIOD   1
 UBDSV1 SAVING "FLOW RIGHT FACE " ON UNIT  53 AT TIME STEP  1, STRESS PERIOD   1
 UBDSV1 SAVING "FLOW FRONT FACE " ON UNIT  53 AT TIME STEP  1, STRESS PERIOD   1

 HEAD WILL BE SAVED ON UNIT   51 AT END OF TIME STEP    1, STRESS PERIOD    1
1
  VOLUMETRIC BUDGET FOR ENTIRE MODEL AT END OF TIME STEP    1, STRESS PERIOD   1
  ------------------------------------------------------------------------------

     CUMULATIVE VOLUMES      L**3       RATES FOR THIS TIME STEP      L**3/T
     ------------------                 ------------------------

           IN:                                      IN:
           ---                                      ---
             STORAGE =           0.4609               STORAGE =           0.2114
       CONSTANT HEAD =         802.9364         CONSTANT HEAD =         368.3194

            TOTAL IN =         803.3973              TOTAL IN =         368.5309

          OUT:                                     OUT:
          ----                                     ----
             STORAGE =           0.0000               STORAGE =           0.0000
       CONSTANT HEAD =         802.7288         CONSTANT HEAD =         368.2242

           TOTAL OUT =         802.7288             TOTAL OUT =         368.2242

            IN - OUT =           0.6685              IN - OUT =           0.3067

 PERCENT DISCREPANCY =           0.08     PERCENT DISCREPANCY =           0.08






         TIME SUMMARY AT END OF TIME STEP    1 IN STRESS PERIOD    1
                    SECONDS     MINUTES      HOURS       DAYS        YEARS
                    -----------------------------------------------------------
   TIME STEP LENGTH 1.88352E+05  3139.2      52.320      2.1800     5.96851E-03
 STRESS PERIOD TIME 1.88352E+05  3139.2      52.320      2.1800     5.96851E-03
         TOTAL TIME 1.88352E+05  3139.2      52.320      2.1800     5.96851E-03
1
1
                            STRESS PERIOD NO.    2, LENGTH =   2.180000    
                            -----------------------------------------------

                              NUMBER OF TIME STEPS =     1

                               MULTIPLIER FOR DELT =     1.000

                            INITIAL TIME STEP SIZE =   2.180000    

 REUSING NON-PARAMETER SPECIFIED-HEAD DATA FROM LAST STRESS PERIOD


     20 TIME-VARIANT SPECIFIED-HEAD CELLS
 
 SOLVING FOR HEAD 
          0                 1           2             9   11     1      -0.7536703370E-03      12    7    1       0.2733153327E-01      0.8878124586E-01      0.1940098577E+01     -0.7536703370E-03

    ------------------------------------------------
       NWT REQUIRED            1 OUTER ITERATIONS 
       AND A TOTAL OF          2 INNER ITERATIONS.
    ------------------------------------------------

 OUTPUT CONTROL FOR STRESS PERIOD    2   TIME STEP    1
    SAVE HEAD FOR ALL LAYERS
    SAVE BUDGET
 UBDSV1 SAVING "         STORAGE" ON UNIT  53 AT TIME STEP  1, STRESS PERIOD   2
 UBDSV2 SAVING "   CONSTANT HEAD" ON UNIT  53 AT TIME STEP  1, STRESS PERIOD   2
 UBDSV1 SAVING "FLOW RIGHT FACE " ON UNIT  53 AT TIME STEP  1, STRESS PERIOD   2
 UBDSV1 SAVING "FLOW FRONT FACE " ON UNIT  53 AT TIME STEP  1, STRESS PERIOD   2

 HEAD WILL BE SAVED ON UNIT   51 AT END OF TIME STEP    1, STRESS PERIOD    2
1
  VOLUMETRIC BUDGET FOR ENTIRE MODEL AT END OF TIME STEP    1, STRESS PERIOD   2
  ------------------------------------------------------------------------------

     CUMULATIVE VOLUMES      L**3       RATES FOR THIS TIME STEP      L**3/T
     ------------------                 ------------------------

           IN:                                      IN:
           ---                                      ---
             STORAGE =           0.4609               STORAGE =       7.3207E-06
       CONSTANT HEAD =        1605.9797         CONSTANT HEAD =         368.3685

            TOTAL IN =        1606.4407              TOTAL IN =         368.3685

          OUT:                                     OUT:
          ----                                     ----
             STORAGE =       4.6989E-07               STORAGE =       2.1555E-07
       CONSTANT HEAD =        1605.7930         CONSTANT HEAD =         368.3781

           TOTAL OUT =        1605.7930             TOTAL OUT =         368.3781

            IN - OUT =           0.6477              IN - OUT =      -9.5215E-03

 PERCENT DISCREPANCY =           0.04     PERCENT DISCREPANCY =          -0.00






         TIME SUMMARY AT END OF TIME STEP    1 IN STRESS PERIOD    2
                    SECONDS     MINUTES      HOURS       DAYS        YEARS
                    -----------------------------------------------------------
   TIME STEP LENGTH 1.88352E+05  3139.2      52.320      2.1800     5.96851E-03
 STRESS PERIOD TIME 1.88352E+05  3139.2      52.320      2.1800     5.96851E-03
         TOTAL TIME 3.76704E+05  6278.4      104.64      4.3600     1.19370E-02
1
1
                            STRESS PERIOD NO.    3, LENGTH =   2.180000    
                            -----------------------------------------------

                              NUMBER OF TIME STEPS =     1

                               MULTIPLIER FOR DELT =     1.000

                            INITIAL TIME STEP SIZE =   2.180000    

 REUSING NON-PARAMETER SPECIFIED-HEAD DATA FROM LAST STRESS PERIOD


     20 TIME-VARIANT SPECIFIED-HEAD CELLS
 
 SOLVING FOR HEAD 
          0                 1           1             9   11     1       0.7493366020E-04      12    7    1      -0.2733117810E-02      0.8877789482E-02      0.8878124586E-01      0.7493366020E-04

    ------------------------------------------------
       NWT REQUIRED            1 OUTER ITERATIONS 
       AND A TOTAL OF          1 INNER ITERATIONS.
    ------------------------------------------------

 OUTPUT CONTROL FOR STRESS PERIOD    3   TIME STEP    1
    SAVE HEAD FOR ALL LAYERS
    SAVE BUDGET
 UBDSV1 SAVING "         STORAGE" ON UNIT  53 AT TIME STEP  1, STRESS PERIOD   3
 UBDSV2 SAVING "   CONSTANT HEAD" ON UNIT  53 AT TIME STEP  1, STRESS PERIOD   3
 UBDSV1 SAVING "FLOW RIGHT FACE " ON UNIT  53 AT TIME STEP  1, STRESS PERIOD   3
 UBDSV1 SAVING "FLOW FRONT FACE " ON UNIT  53 AT TIME STEP  1, STRESS PERIOD   3

 HEAD WILL BE SAVED ON UNIT   51 AT END OF TIME STEP    1, STRESS PERIOD    3
1
  VOLUMETRIC BUDGET FOR ENTIRE MODEL AT END OF TIME STEP    1, STRESS PERIOD   3
  ------------------------------------------------------------------------------

     CUMULATIVE VOLUMES      L**3       RATES FOR THIS TIME STEP      L**3/T
     ------------------                 ------------------------

           IN:                                      IN:
           ---                                      ---
             STORAGE =           0.4609               STORAGE =       2.1628E-08
       CONSTANT HEAD =        2409.0125         CONSTANT HEAD =         368.3636

            TOTAL IN =        2409.4734              TOTAL IN =         368.3636

          OUT:                                     OUT:
          ----                                     ----
             STORAGE =       2.0599E-06               STORAGE =       7.2934E-07
       CONSTANT HEAD =        2408.8237         CONSTANT HEAD =         368.3627

           TOTAL OUT =        2408.8237             TOTAL OUT =         368.3627

            IN - OUT =           0.6497              IN - OUT =       9.4604E-04

 PERCENT DISCREPANCY =           0.03     PERCENT DISCREPANCY =           0.00






         TIME SUMMARY AT END OF TIME STEP    1 IN STRESS PERIOD    3
                    SECONDS     MINUTES      HOURS       DAYS        YEARS
                    -----------------------------------------------------------
   TIME STEP LENGTH 1.88352E+05  3139.2      52.320      2.1800     5.96851E-03
 STRESS PERIOD TIME 1.88352E+05  3139.2      52.320      2.1800     5.96851E-03
         TOTAL TIME 5.65056E+05  9417.6      156.96      6.5400     1.79055E-02
1
1
                            STRESS PERIOD NO.    4, LENGTH =   2.180000    
                            -----------------------------------------------

                              NUMBER OF TIME STEPS =     1

                               MULTIPLIER FOR DELT =     1.000

                            INITIAL TIME STEP SIZE =   2.180000    

 REUSING NON-PARAMETER SPECIFIED-HEAD DATA FROM LAST STRESS PERIOD


     20 TIME-VARIANT SPECIFIED-HEAD CELLS
 
 SOLVING FOR HEAD 
          0                 1           1            10   11     1      -0.7174479860E-05      13    7    1       0.2731836853E-03      0.8816476749E-03      0.8877789482E-02     -0.7174479860E-05

    ------------------------------------------------
       NWT REQUIRED            1 OUTER ITERATIONS 
       AND A TOTAL OF          1 INNER ITERATIONS.
    ------------------------------------------------

 OUTPUT CONTROL FOR STRESS PERIOD    4   TIME STEP    1
    SAVE HEAD FOR ALL LAYERS
    SAVE BUDGET
 UBDSV1 SAVING "         STORAGE" ON UNIT  53 AT TIME STEP  1, STRESS PERIOD   4
 UBDSV2 SAVING "   CONSTANT HEAD" ON UNIT  53 AT TIME STEP  1, STRESS PERIOD   4
 UBDSV1 SAVING "FLOW RIGHT FACE " ON UNIT  53 AT TIME STEP  1, STRESS PERIOD   4
 UBDSV1 SAVING "FLOW FRONT FACE " ON UNIT  53 AT TIME STEP  1, STRESS PERIOD   4

 HEAD WILL BE SAVED ON UNIT   51 AT END OF TIME STEP    1, STRESS PERIOD    4
1
  VOLUMETRIC BUDGET FOR ENTIRE MODEL AT END OF TIME STEP    1, STRESS PERIOD   4
  ------------------------------------------------------------------------------

     CUMULATIVE VOLUMES      L**3       RATES FOR THIS TIME STEP      L**3/T
     ------------------                 ------------------------

           IN:                                      IN:
           ---                                      ---
             STORAGE =           0.4609               STORAGE =       7.1525E-08
       CONSTANT HEAD =        3212.0461         CONSTANT HEAD =         368.3641

            TOTAL IN =        3212.5071              TOTAL IN =         368.3641

          OUT:                                     OUT:
          ----                                     ----
             STORAGE =       2.0652E-06               STORAGE =       2.4689E-09
       CONSTANT HEAD =        3211.8577         CONSTANT HEAD =         368.3642

           TOTAL OUT =        3211.8577             TOTAL OUT =         368.3642

            IN - OUT =           0.6494              IN - OUT =      -9.1553E-05

 PERCENT DISCREPANCY =           0.02     PERCENT DISCREPANCY =          -0.00






         TIME SUMMARY AT END OF TIME STEP    1 IN STRESS PERIOD    4
                    SECONDS     MINUTES      HOURS       DAYS        YEARS
                    -----------------------------------------------------------
   TIME STEP LENGTH 1.88352E+05  3139.2      52.320      2.1800     5.96851E-03
 STRESS PERIOD TIME 1.88352E+05  3139.2      52.320      2.1800     5.96851E-03
         TOTAL TIME 7.53408E+05  12557.      209.28      8.7200     2.38741E-02
1
1
                            STRESS PERIOD NO.    5, LENGTH =   2.180000    
                            -----------------------------------------------

                              NUMBER OF TIME STEPS =     1

                               MULTIPLIER FOR DELT =     1.000

                            INITIAL TIME STEP SIZE =   2.180000    

 REUSING NON-PARAMETER SPECIFIED-HEAD DATA FROM LAST STRESS PERIOD


     20 TIME-VARIANT SPECIFIED-HEAD CELLS
 
 SOLVING FOR HEAD 
          0                 1           1            11   11     1       0.6964312301E-06      13    7    1      -0.2731815084E-04      0.8763100272E-04      0.8816476749E-03      0.6964312301E-06

    ------------------------------------------------
       NWT REQUIRED            1 OUTER ITERATIONS 
       AND A TOTAL OF          1 INNER ITERATIONS.
    ------------------------------------------------

 OUTPUT CONTROL FOR STRESS PERIOD    5   TIME STEP    1
    SAVE HEAD FOR ALL LAYERS
    SAVE BUDGET
 UBDSV1 SAVING "         STORAGE" ON UNIT  53 AT TIME STEP  1, STRESS PERIOD   5
 UBDSV2 SAVING "   CONSTANT HEAD" ON UNIT  53 AT TIME STEP  1, STRESS PERIOD   5
 UBDSV1 SAVING "FLOW RIGHT FACE " ON UNIT  53 AT TIME STEP  1, STRESS PERIOD   5
 UBDSV1 SAVING "FLOW FRONT FACE " ON UNIT  53 AT TIME STEP  1, STRESS PERIOD   5

 HEAD WILL BE SAVED ON UNIT   51 AT END OF TIME STEP    1, STRESS PERIOD    5
1
  VOLUMETRIC BUDGET FOR ENTIRE MODEL AT END OF TIME STEP    1, STRESS PERIOD   5
  ------------------------------------------------------------------------------

     CUMULATIVE VOLUMES      L**3       RATES FOR THIS TIME STEP      L**3/T
     ------------------                 ------------------------

           IN:                                      IN:
           ---                                      ---
             STORAGE =           0.4609               STORAGE =       4.5418E-09
       CONSTANT HEAD =        4015.0798         CONSTANT HEAD =         368.3641

            TOTAL IN =        4015.5408              TOTAL IN =         368.3641

          OUT:                                     OUT:
          ----                                     ----
             STORAGE =       2.0871E-06               STORAGE =       1.0019E-08
       CONSTANT HEAD =        4014.8914         CONSTANT HEAD =         368.3640

           TOTAL OUT =        4014.8914             TOTAL OUT =         368.3640

            IN - OUT =           0.6494              IN - OUT =       3.0518E-05

 PERCENT DISCREPANCY =           0.02     PERCENT DISCREPANCY =           0.00






         TIME SUMMARY AT END OF TIME STEP    1 IN STRESS PERIOD    5
                    SECONDS     MINUTES      HOURS       DAYS        YEARS
                    -----------------------------------------------------------
   TIME STEP LENGTH 1.88352E+05  3139.2      52.320      2.1800     5.96851E-03
 STRESS PERIOD TIME 1.88352E+05  3139.2      52.320      2.1800     5.96851E-03
         TOTAL TIME 9.41760E+05  15696.      261.60      10.900     2.98426E-02
1
1
                            STRESS PERIOD NO.    6, LENGTH =   2.180000    
                            -----------------------------------------------

                              NUMBER OF TIME STEPS =     1

                               MULTIPLIER FOR DELT =     1.000

                            INITIAL TIME STEP SIZE =   2.180000    

 REUSING NON-PARAMETER SPECIFIED-HEAD DATA FROM LAST STRESS PERIOD


     20 TIME-VARIANT SPECIFIED-HEAD CELLS
 
 SOLVING FOR HEAD 
          0                 1           1            21   11     1      -0.7234798797E-07      13    7    1       0.2731816039E-05      0.8717984899E-05      0.8763100272E-04     -0.7234798797E-07

    ------------------------------------------------
       NWT REQUIRED            1 OUTER ITERATIONS 
       AND A TOTAL OF          1 INNER ITERATIONS.
    ------------------------------------------------

 OUTPUT CONTROL FOR STRESS PERIOD    6   TIME STEP    1
    SAVE HEAD FOR ALL LAYERS
    SAVE BUDGET
 UBDSV1 SAVING "         STORAGE" ON UNIT  53 AT TIME STEP  1, STRESS PERIOD   6
 UBDSV2 SAVING "   CONSTANT HEAD" ON UNIT  53 AT TIME STEP  1, STRESS PERIOD   6
 UBDSV1 SAVING "FLOW RIGHT FACE " ON UNIT  53 AT TIME STEP  1, STRESS PERIOD   6
 UBDSV1 SAVING "FLOW FRONT FACE " ON UNIT  53 AT TIME STEP  1, STRESS PERIOD   6

 HEAD WILL BE SAVED ON UNIT   51 AT END OF TIME STEP    1, STRESS PERIOD    6
1
  VOLUMETRIC BUDGET FOR ENTIRE MODEL AT END OF TIME STEP    1, STRESS PERIOD   6
  ------------------------------------------------------------------------------

     CUMULATIVE VOLUMES      L**3       RATES FOR THIS TIME STEP      L**3/T
     ------------------                 ------------------------

           IN:                                      IN:
           ---                                      ---
             STORAGE =           0.4609               STORAGE =       7.6186E-09
       CONSTANT HEAD =        4818.1133         CONSTANT HEAD =         368.3641

            TOTAL IN =        4818.5742              TOTAL IN =         368.3641

          OUT:                                     OUT:
          ----                                     ----
             STORAGE =       2.1000E-06               STORAGE =       5.9180E-09
       CONSTANT HEAD =        4817.9248         CONSTANT HEAD =         368.3641

           TOTAL OUT =        4817.9248             TOTAL OUT =         368.3641

            IN - OUT =           0.6494              IN - OUT =           0.0000

 PERCENT DISCREPANCY =           0.01     PERCENT DISCREPANCY =           0.00






         TIME SUMMARY AT END OF TIME STEP    1 IN STRESS PERIOD    6
                    SECONDS     MINUTES      HOURS       DAYS        YEARS
                    -----------------------------------------------------------
   TIME STEP LENGTH 1.88352E+05  3139.2      52.320      2.1800     5.96851E-03
 STRESS PERIOD TIME 1.88352E+05  3139.2      52.320      2.1800     5.96851E-03
         TOTAL TIME 1.13011E+06  18835.      313.92      13.080     3.58111E-02
1
1
                            STRESS PERIOD NO.    7, LENGTH =   2.180000    
                            -----------------------------------------------

                              NUMBER OF TIME STEPS =     1

                               MULTIPLIER FOR DELT =     1.000

                            INITIAL TIME STEP SIZE =   2.180000    

 REUSING NON-PARAMETER SPECIFIED-HEAD DATA FROM LAST STRESS PERIOD


     20 TIME-VARIANT SPECIFIED-HEAD CELLS
 
 SOLVING FOR HEAD 
          0                 1           1            21   11     1       0.7570853466E-08      13    7    1      -0.2731817403E-06      0.8681524527E-06      0.8717984899E-05      0.7570853466E-08

    ------------------------------------------------
       NWT REQUIRED            1 OUTER ITERATIONS 
       AND A TOTAL OF          1 INNER ITERATIONS.
    ------------------------------------------------

 OUTPUT CONTROL FOR STRESS PERIOD    7   TIME STEP    1
    SAVE HEAD FOR ALL LAYERS
    SAVE BUDGET
 UBDSV1 SAVING "         STORAGE" ON UNIT  53 AT TIME STEP  1, STRESS PERIOD   7
 UBDSV2 SAVING "   CONSTANT HEAD" ON UNIT  53 AT TIME STEP  1, STRESS PERIOD   7
 UBDSV1 SAVING "FLOW RIGHT FACE " ON UNIT  53 AT TIME STEP  1, STRESS PERIOD   7
 UBDSV1 SAVING "FLOW FRONT FACE " ON UNIT  53 AT TIME STEP  1, STRESS PERIOD   7

 HEAD WILL BE SAVED ON UNIT   51 AT END OF TIME STEP    1, STRESS PERIOD    7
1
  VOLUMETRIC BUDGET FOR ENTIRE MODEL AT END OF TIME STEP    1, STRESS PERIOD   7
  ------------------------------------------------------------------------------

     CUMULATIVE VOLUMES      L**3       RATES FOR THIS TIME STEP      L**3/T
     ------------------                 ------------------------

           IN:                                      IN:
           ---                                      ---
             STORAGE =           0.4609               STORAGE =       7.5874E-09
       CONSTANT HEAD =        5621.1470         CONSTANT HEAD =         368.3641

            TOTAL IN =        5621.6079              TOTAL IN =         368.3641

          OUT:                                     OUT:
          ----                                     ----
             STORAGE =       2.1129E-06               STORAGE =       5.9442E-09
       CONSTANT HEAD =        5620.9585         CONSTANT HEAD =         368.3641

           TOTAL OUT =        5620.9585             TOTAL OUT =         368.3641

            IN - OUT =           0.6494              IN - OUT =           0.0000

 PERCENT DISCREPANCY =           0.01     PERCENT DISCREPANCY =           0.00






         TIME SUMMARY AT END OF TIME STEP    1 IN STRESS PERIOD    7
                    SECONDS     MINUTES      HOURS       DAYS        YEARS
                    -----------------------------------------------------------
   TIME STEP LENGTH 1.88352E+05  3139.2      52.320      2.1800     5.96851E-03
 STRESS PERIOD TIME 1.88352E+05  3139.2      52.320      2.1800     5.96851E-03
         TOTAL TIME 1.31846E+06  21974.      366.24      15.260     4.17796E-02
1
1
                            STRESS PERIOD NO.    8, LENGTH =   2.180000    
                            -----------------------------------------------

                              NUMBER OF TIME STEPS =     1

                               MULTIPLIER FOR DELT =     1.000

                            INITIAL TIME STEP SIZE =   2.180000    

 REUSING NON-PARAMETER SPECIFIED-HEAD DATA FROM LAST STRESS PERIOD


     20 TIME-VARIANT SPECIFIED-HEAD CELLS
 
 SOLVING FOR HEAD 
          0                 1           1            21   11     1      -0.7890065501E-09      13    7    1       0.2731712812E-07      0.8653814268E-07      0.8681524527E-06     -0.7890065501E-09

    ------------------------------------------------
       NWT REQUIRED            1 OUTER ITERATIONS 
       AND A TOTAL OF          1 INNER ITERATIONS.
    ------------------------------------------------

 OUTPUT CONTROL FOR STRESS PERIOD    8   TIME STEP    1
    SAVE HEAD FOR ALL LAYERS
    SAVE BUDGET
 UBDSV1 SAVING "         STORAGE" ON UNIT  53 AT TIME STEP  1, STRESS PERIOD   8
 UBDSV2 SAVING "   CONSTANT HEAD" ON UNIT  53 AT TIME STEP  1, STRESS PERIOD   8
 UBDSV1 SAVING "FLOW RIGHT FACE " ON UNIT  53 AT TIME STEP  1, STRESS PERIOD   8
 UBDSV1 SAVING "FLOW FRONT FACE " ON UNIT  53 AT TIME STEP  1, STRESS PERIOD   8

 HEAD WILL BE SAVED ON UNIT   51 AT END OF TIME STEP    1, STRESS PERIOD    8
1
  VOLUMETRIC BUDGET FOR ENTIRE MODEL AT END OF TIME STEP    1, STRESS PERIOD   8
  ------------------------------------------------------------------------------

     CUMULATIVE VOLUMES      L**3       RATES FOR THIS TIME STEP      L**3/T
     ------------------                 ------------------------

           IN:                                      IN:
           ---                                      ---
             STORAGE =           0.4609               STORAGE =       7.5902E-09
       CONSTANT HEAD =        6424.1807         CONSTANT HEAD =         368.3641

            TOTAL IN =        6424.6416              TOTAL IN =         368.3641

          OUT:                                     OUT:
          ----                                     ----
             STORAGE =       2.1259E-06               STORAGE =       5.9418E-09
       CONSTANT HEAD =        6423.9922         CONSTANT HEAD =         368.3641

           TOTAL OUT =        6423.9922             TOTAL OUT =         368.3641

            IN - OUT =           0.6494              IN - OUT =           0.0000

 PERCENT DISCREPANCY =           0.01     PERCENT DISCREPANCY =           0.00






         TIME SUMMARY AT END OF TIME STEP    1 IN STRESS PERIOD    8
                    SECONDS     MINUTES      HOURS       DAYS        YEARS
                    -----------------------------------------------------------
   TIME STEP LENGTH 1.88352E+05  3139.2      52.320      2.1800     5.96851E-03
 STRESS PERIOD TIME 1.88352E+05  3139.2      52.320      2.1800     5.96851E-03
         TOTAL TIME 1.50682E+06  25114.      418.56      17.440     4.77481E-02
1
1
                            STRESS PERIOD NO.    9, LENGTH =   2.180000    
                            -----------------------------------------------

                              NUMBER OF TIME STEPS =     1

                               MULTIPLIER FOR DELT =     1.000

                            INITIAL TIME STEP SIZE =   2.180000    

 REUSING NON-PARAMETER SPECIFIED-HEAD DATA FROM LAST STRESS PERIOD


     20 TIME-VARIANT SPECIFIED-HEAD CELLS
 
 SOLVING FOR HEAD 
          0                 1           1            21   11     1       0.8170424348E-10      13    7    1      -0.2731212589E-08      0.8634190062E-08      0.8653814268E-07      0.8170424348E-10

    ------------------------------------------------
       NWT REQUIRED            1 OUTER ITERATIONS 
       AND A TOTAL OF          1 INNER ITERATIONS.
    ------------------------------------------------

 OUTPUT CONTROL FOR STRESS PERIOD    9   TIME STEP    1
    SAVE HEAD FOR ALL LAYERS
    SAVE BUDGET
 UBDSV1 SAVING "         STORAGE" ON UNIT  53 AT TIME STEP  1, STRESS PERIOD   9
 UBDSV2 SAVING "   CONSTANT HEAD" ON UNIT  53 AT TIME STEP  1, STRESS PERIOD   9
 UBDSV1 SAVING "FLOW RIGHT FACE " ON UNIT  53 AT TIME STEP  1, STRESS PERIOD   9
 UBDSV1 SAVING "FLOW FRONT FACE " ON UNIT  53 AT TIME STEP  1, STRESS PERIOD   9

 HEAD WILL BE SAVED ON UNIT   51 AT END OF TIME STEP    1, STRESS PERIOD    9
1
  VOLUMETRIC BUDGET FOR ENTIRE MODEL AT END OF TIME STEP    1, STRESS PERIOD   9
  ------------------------------------------------------------------------------

     CUMULATIVE VOLUMES      L**3       RATES FOR THIS TIME STEP      L**3/T
     ------------------                 ------------------------

           IN:                                      IN:
           ---                                      ---
             STORAGE =           0.4609               STORAGE =       7.5900E-09
       CONSTANT HEAD =        7227.2144         CONSTANT HEAD =         368.3641

            TOTAL IN =        7227.6753              TOTAL IN =         368.3641

          OUT:                                     OUT:
          ----                                     ----
             STORAGE =       2.1388E-06               STORAGE =       5.9420E-09
       CONSTANT HEAD =        7227.0259         CONSTANT HEAD =         368.3641

           TOTAL OUT =        7227.0259             TOTAL OUT =         368.3641

            IN - OUT =           0.6494              IN - OUT =           0.0000

 PERCENT DISCREPANCY =           0.01     PERCENT DISCREPANCY =           0.00






         TIME SUMMARY AT END OF TIME STEP    1 IN STRESS PERIOD    9
                    SECONDS     MINUTES      HOURS       DAYS        YEARS
                    -----------------------------------------------------------
   TIME STEP LENGTH 1.88352E+05  3139.2      52.320      2.1800     5.96851E-03
 STRESS PERIOD TIME 1.88352E+05  3139.2      52.320      2.1800     5.96851E-03
         TOTAL TIME 1.69517E+06  28253.      470.88      19.620     5.37166E-02
1
1
                            STRESS PERIOD NO.   10, LENGTH =   2.180000    
                            -----------------------------------------------

                              NUMBER OF TIME STEPS =     1

                               MULTIPLIER FOR DELT =     1.000

                            INITIAL TIME STEP SIZE =   2.180000    

 REUSING NON-PARAMETER SPECIFIED-HEAD DATA FROM LAST STRESS PERIOD


     20 TIME-VARIANT SPECIFIED-HEAD CELLS
 
 SOLVING FOR HEAD 
          0                 1           1            21   11     1      -0.8366995996E-11      15    7    1       0.2728484105E-09      0.8616431773E-09      0.8634190062E-08     -0.8366995996E-11

    ------------------------------------------------
       NWT REQUIRED            1 OUTER ITERATIONS 
       AND A TOTAL OF          1 INNER ITERATIONS.
    ------------------------------------------------

 OUTPUT CONTROL FOR STRESS PERIOD   10   TIME STEP    1
    SAVE HEAD FOR ALL LAYERS
    SAVE BUDGET
 UBDSV1 SAVING "         STORAGE" ON UNIT  53 AT TIME STEP  1, STRESS PERIOD  10
 UBDSV2 SAVING "   CONSTANT HEAD" ON UNIT  53 AT TIME STEP  1, STRESS PERIOD  10
 UBDSV1 SAVING "FLOW RIGHT FACE " ON UNIT  53 AT TIME STEP  1, STRESS PERIOD  10
 UBDSV1 SAVING "FLOW FRONT FACE " ON UNIT  53 AT TIME STEP  1, STRESS PERIOD  10

 HEAD WILL BE SAVED ON UNIT   51 AT END OF TIME STEP    1, STRESS PERIOD   10
1
  VOLUMETRIC BUDGET FOR ENTIRE MODEL AT END OF TIME STEP    1, STRESS PERIOD  10
  ------------------------------------------------------------------------------

     CUMULATIVE VOLUMES      L**3       RATES FOR THIS TIME STEP      L**3/T
     ------------------                 ------------------------

           IN:                                      IN:
           ---                                      ---
             STORAGE =           0.4609               STORAGE =       7.5900E-09
       CONSTANT HEAD =        8030.2480         CONSTANT HEAD =         368.3641

            TOTAL IN =        8030.7090              TOTAL IN =         368.3641

          OUT:                                     OUT:
          ----                                     ----
             STORAGE =       2.1518E-06               STORAGE =       5.9420E-09
       CONSTANT HEAD =        8030.0596         CONSTANT HEAD =         368.3641

           TOTAL OUT =        8030.0596             TOTAL OUT =         368.3641

            IN - OUT =           0.6494              IN - OUT =           0.0000

 PERCENT DISCREPANCY =           0.01     PERCENT DISCREPANCY =           0.00






         TIME SUMMARY AT END OF TIME STEP    1 IN STRESS PERIOD   10
                    SECONDS     MINUTES      HOURS       DAYS        YEARS
                    -----------------------------------------------------------
   TIME STEP LENGTH 1.88352E+05  3139.2      52.320      2.1800     5.96851E-03
 STRESS PERIOD TIME 1.88352E+05  3139.2      52.320      2.1800     5.96851E-03
         TOTAL TIME 1.88352E+06  31392.      523.20      21.800     5.96852E-02
1
1
                            STRESS PERIOD NO.   11, LENGTH =   2.180000    
                            -----------------------------------------------

                              NUMBER OF TIME STEPS =     1

                               MULTIPLIER FOR DELT =     1.000

                            INITIAL TIME STEP SIZE =   2.180000    

 REUSING NON-PARAMETER SPECIFIED-HEAD DATA FROM LAST STRESS PERIOD


     20 TIME-VARIANT SPECIFIED-HEAD CELLS
 
 SOLVING FOR HEAD 
          0                 1           1            21   11     1       0.8753886516E-12      15    7    1      -0.2819433575E-10      0.8802866420E-10      0.8616431773E-09      0.8753886516E-12

    ------------------------------------------------
       NWT REQUIRED            1 OUTER ITERATIONS 
       AND A TOTAL OF          1 INNER ITERATIONS.
    ------------------------------------------------

 OUTPUT CONTROL FOR STRESS PERIOD   11   TIME STEP    1
    SAVE HEAD FOR ALL LAYERS
    SAVE BUDGET
 UBDSV1 SAVING "         STORAGE" ON UNIT  53 AT TIME STEP  1, STRESS PERIOD  11
 UBDSV2 SAVING "   CONSTANT HEAD" ON UNIT  53 AT TIME STEP  1, STRESS PERIOD  11
 UBDSV1 SAVING "FLOW RIGHT FACE " ON UNIT  53 AT TIME STEP  1, STRESS PERIOD  11
 UBDSV1 SAVING "FLOW FRONT FACE " ON UNIT  53 AT TIME STEP  1, STRESS PERIOD  11

 HEAD WILL BE SAVED ON UNIT   51 AT END OF TIME STEP    1, STRESS PERIOD   11
1
  VOLUMETRIC BUDGET FOR ENTIRE MODEL AT END OF TIME STEP    1, STRESS PERIOD  11
  ------------------------------------------------------------------------------

     CUMULATIVE VOLUMES      L**3       RATES FOR THIS TIME STEP      L**3/T
     ------------------                 ------------------------

           IN:                                      IN:
           ---                                      ---
             STORAGE =           0.4609               STORAGE =       7.5900E-09
       CONSTANT HEAD =        8833.2812         CONSTANT HEAD =         368.3641

            TOTAL IN =        8833.7422              TOTAL IN =         368.3641

          OUT:                                     OUT:
          ----                                     ----
             STORAGE =       2.1647E-06               STORAGE =       5.9420E-09
       CONSTANT HEAD =        8833.0938         CONSTANT HEAD =         368.3641

           TOTAL OUT =        8833.0938             TOTAL OUT =         368.3641

            IN - OUT =           0.6484              IN - OUT =           0.0000

 PERCENT DISCREPANCY =           0.01     PERCENT DISCREPANCY =           0.00






         TIME SUMMARY AT END OF TIME STEP    1 IN STRESS PERIOD   11
                    SECONDS     MINUTES      HOURS       DAYS        YEARS
                    -----------------------------------------------------------
   TIME STEP LENGTH 1.88352E+05  3139.2      52.320      2.1800     5.96851E-03
 STRESS PERIOD TIME 1.88352E+05  3139.2      52.320      2.1800     5.96851E-03
         TOTAL TIME 2.07187E+06  34531.      575.52      23.980     6.56537E-02
1
1
                            STRESS PERIOD NO.   12, LENGTH =   2.180000    
                            -----------------------------------------------

                              NUMBER OF TIME STEPS =     1

                               MULTIPLIER FOR DELT =     1.000

                            INITIAL TIME STEP SIZE =   2.180000    

 REUSING NON-PARAMETER SPECIFIED-HEAD DATA FROM LAST STRESS PERIOD


     20 TIME-VARIANT SPECIFIED-HEAD CELLS
 
 SOLVING FOR HEAD 
          0                 1           1             1    8     1      -0.2501110433E-12      15    7    1       0.4547473509E-11      0.1797490516E-10      0.8802866420E-10     -0.2501110433E-12

    ------------------------------------------------
       NWT REQUIRED            1 OUTER ITERATIONS 
       AND A TOTAL OF          1 INNER ITERATIONS.
    ------------------------------------------------

 OUTPUT CONTROL FOR STRESS PERIOD   12   TIME STEP    1
    SAVE HEAD FOR ALL LAYERS
    SAVE BUDGET
 UBDSV1 SAVING "         STORAGE" ON UNIT  53 AT TIME STEP  1, STRESS PERIOD  12
 UBDSV2 SAVING "   CONSTANT HEAD" ON UNIT  53 AT TIME STEP  1, STRESS PERIOD  12
 UBDSV1 SAVING "FLOW RIGHT FACE " ON UNIT  53 AT TIME STEP  1, STRESS PERIOD  12
 UBDSV1 SAVING "FLOW FRONT FACE " ON UNIT  53 AT TIME STEP  1, STRESS PERIOD  12

 HEAD WILL BE SAVED ON UNIT   51 AT END OF TIME STEP    1, STRESS PERIOD   12
1
  VOLUMETRIC BUDGET FOR ENTIRE MODEL AT END OF TIME STEP    1, STRESS PERIOD  12
  ------------------------------------------------------------------------------

     CUMULATIVE VOLUMES      L**3       RATES FOR THIS TIME STEP      L**3/T
     ------------------                 ------------------------

           IN:                                      IN:
           ---                                      ---
             STORAGE =           0.4609               STORAGE =       7.5900E-09
       CONSTANT HEAD =        9636.3145         CONSTANT HEAD =         368.3641

            TOTAL IN =        9636.7754              TOTAL IN =         368.3641

          OUT:                                     OUT:
          ----                                     ----
             STORAGE =       2.1777E-06               STORAGE =       5.9420E-09
       CONSTANT HEAD =        9636.1270         CONSTANT HEAD =         368.3641

           TOTAL OUT =        9636.1270             TOTAL OUT =         368.3641

            IN - OUT =           0.6484              IN - OUT =           0.0000

 PERCENT DISCREPANCY =           0.01     PERCENT DISCREPANCY =           0.00






         TIME SUMMARY AT END OF TIME STEP    1 IN STRESS PERIOD   12
                    SECONDS     MINUTES      HOURS       DAYS        YEARS
                    -----------------------------------------------------------
   TIME STEP LENGTH 1.88352E+05  3139.2      52.320      2.1800     5.96851E-03
 STRESS PERIOD TIME 1.88352E+05  3139.2      52.320      2.1800     5.96851E-03
         TOTAL TIME 2.26022E+06  37670.      627.84      26.160     7.16222E-02
1
1
                            STRESS PERIOD NO.   13, LENGTH =   2.180000    
                            -----------------------------------------------

                              NUMBER OF TIME STEPS =     1

                               MULTIPLIER FOR DELT =     1.000

                            INITIAL TIME STEP SIZE =   2.180000    

 REUSING NON-PARAMETER SPECIFIED-HEAD DATA FROM LAST STRESS PERIOD


     20 TIME-VARIANT SPECIFIED-HEAD CELLS
 
 SOLVING FOR HEAD 
          0                 1           1             1   10     1       0.3751665650E-12       4    4    1      -0.4547473509E-11      0.1524476625E-10      0.1797490516E-10      0.3751665650E-12

    ------------------------------------------------
       NWT REQUIRED            1 OUTER ITERATIONS 
       AND A TOTAL OF          1 INNER ITERATIONS.
    ------------------------------------------------

 OUTPUT CONTROL FOR STRESS PERIOD   13   TIME STEP    1
    SAVE HEAD FOR ALL LAYERS
    SAVE BUDGET
 UBDSV1 SAVING "         STORAGE" ON UNIT  53 AT TIME STEP  1, STRESS PERIOD  13
 UBDSV2 SAVING "   CONSTANT HEAD" ON UNIT  53 AT TIME STEP  1, STRESS PERIOD  13
 UBDSV1 SAVING "FLOW RIGHT FACE " ON UNIT  53 AT TIME STEP  1, STRESS PERIOD  13
 UBDSV1 SAVING "FLOW FRONT FACE " ON UNIT  53 AT TIME STEP  1, STRESS PERIOD  13

 HEAD WILL BE SAVED ON UNIT   51 AT END OF TIME STEP    1, STRESS PERIOD   13
1
  VOLUMETRIC BUDGET FOR ENTIRE MODEL AT END OF TIME STEP    1, STRESS PERIOD  13
  ------------------------------------------------------------------------------

     CUMULATIVE VOLUMES      L**3       RATES FOR THIS TIME STEP      L**3/T
     ------------------                 ------------------------

           IN:                                      IN:
           ---                                      ---
             STORAGE =           0.4609               STORAGE =       7.5900E-09
       CONSTANT HEAD =       10439.3477         CONSTANT HEAD =         368.3641

            TOTAL IN =       10439.8086              TOTAL IN =         368.3641

          OUT:                                     OUT:
          ----                                     ----
             STORAGE =       2.1907E-06               STORAGE =       5.9420E-09
       CONSTANT HEAD =       10439.1602         CONSTANT HEAD =         368.3641

           TOTAL OUT =       10439.1602             TOTAL OUT =         368.3641

            IN - OUT =           0.6484              IN - OUT =           0.0000

 PERCENT DISCREPANCY =           0.01     PERCENT DISCREPANCY =           0.00






         TIME SUMMARY AT END OF TIME STEP    1 IN STRESS PERIOD   13
                    SECONDS     MINUTES      HOURS       DAYS        YEARS
                    -----------------------------------------------------------
   TIME STEP LENGTH 1.88352E+05  3139.2      52.320      2.1800     5.96851E-03
 STRESS PERIOD TIME 1.88352E+05  3139.2      52.320      2.1800     5.96851E-03
         TOTAL TIME 2.44858E+06  40810.      680.16      28.340     7.75907E-02
1
1
                            STRESS PERIOD NO.   14, LENGTH =   2.180000    
                            -----------------------------------------------

                              NUMBER OF TIME STEPS =     1

                               MULTIPLIER FOR DELT =     1.000

                            INITIAL TIME STEP SIZE =   2.180000    

 REUSING NON-PARAMETER SPECIFIED-HEAD DATA FROM LAST STRESS PERIOD


     20 TIME-VARIANT SPECIFIED-HEAD CELLS
 
 SOLVING FOR HEAD 
          0                 1           1             3   10     1      -0.4220623856E-12       4    4    1       0.3637978807E-11      0.1577358731E-10      0.1524476625E-10     -0.4220623856E-12

    ------------------------------------------------
       NWT REQUIRED            1 OUTER ITERATIONS 
       AND A TOTAL OF          1 INNER ITERATIONS.
    ------------------------------------------------

 OUTPUT CONTROL FOR STRESS PERIOD   14   TIME STEP    1
    SAVE HEAD FOR ALL LAYERS
    SAVE BUDGET
 UBDSV1 SAVING "         STORAGE" ON UNIT  53 AT TIME STEP  1, STRESS PERIOD  14
 UBDSV2 SAVING "   CONSTANT HEAD" ON UNIT  53 AT TIME STEP  1, STRESS PERIOD  14
 UBDSV1 SAVING "FLOW RIGHT FACE " ON UNIT  53 AT TIME STEP  1, STRESS PERIOD  14
 UBDSV1 SAVING "FLOW FRONT FACE " ON UNIT  53 AT TIME STEP  1, STRESS PERIOD  14

 HEAD WILL BE SAVED ON UNIT   51 AT END OF TIME STEP    1, STRESS PERIOD   14
1
  VOLUMETRIC BUDGET FOR ENTIRE MODEL AT END OF TIME STEP    1, STRESS PERIOD  14
  ------------------------------------------------------------------------------

     CUMULATIVE VOLUMES      L**3       RATES FOR THIS TIME STEP      L**3/T
     ------------------                 ------------------------

           IN:                                      IN:
           ---                                      ---
             STORAGE =           0.4609               STORAGE =       7.5900E-09
       CONSTANT HEAD =       11242.3809         CONSTANT HEAD =         368.3641

            TOTAL IN =       11242.8418              TOTAL IN =         368.3641

          OUT:                                     OUT:
          ----                                     ----
             STORAGE =       2.2036E-06               STORAGE =       5.9420E-09
       CONSTANT HEAD =       11242.1934         CONSTANT HEAD =         368.3641

           TOTAL OUT =       11242.1934             TOTAL OUT =         368.3641

            IN - OUT =           0.6484              IN - OUT =           0.0000

 PERCENT DISCREPANCY =           0.01     PERCENT DISCREPANCY =           0.00






         TIME SUMMARY AT END OF TIME STEP    1 IN STRESS PERIOD   14
                    SECONDS     MINUTES      HOURS       DAYS        YEARS
                    -----------------------------------------------------------
   TIME STEP LENGTH 1.88352E+05  3139.2      52.320      2.1800     5.96851E-03
 STRESS PERIOD TIME 1.88352E+05  3139.2      52.320      2.1800     5.96851E-03
         TOTAL TIME 2.63693E+06  43949.      732.48      30.520     8.35592E-02
1
1
                            STRESS PERIOD NO.   15, LENGTH =   2.180000    
                            -----------------------------------------------

                              NUMBER OF TIME STEPS =     1

                               MULTIPLIER FOR DELT =     1.000

                            INITIAL TIME STEP SIZE =   2.180000    

 REUSING NON-PARAMETER SPECIFIED-HEAD DATA FROM LAST STRESS PERIOD


     20 TIME-VARIANT SPECIFIED-HEAD CELLS
 
 SOLVING FOR HEAD 
          0                 1           1             5    8     1       0.1094235815E-12       5    8    1       0.4547473509E-11      0.1524259021E-10      0.1577358731E-10      0.1094235815E-12

    ------------------------------------------------
       NWT REQUIRED            1 OUTER ITERATIONS 
       AND A TOTAL OF          1 INNER ITERATIONS.
    ------------------------------------------------

 OUTPUT CONTROL FOR STRESS PERIOD   15   TIME STEP    1
    SAVE HEAD FOR ALL LAYERS
    SAVE BUDGET
 UBDSV1 SAVING "         STORAGE" ON UNIT  53 AT TIME STEP  1, STRESS PERIOD  15
 UBDSV2 SAVING "   CONSTANT HEAD" ON UNIT  53 AT TIME STEP  1, STRESS PERIOD  15
 UBDSV1 SAVING "FLOW RIGHT FACE " ON UNIT  53 AT TIME STEP  1, STRESS PERIOD  15
 UBDSV1 SAVING "FLOW FRONT FACE " ON UNIT  53 AT TIME STEP  1, STRESS PERIOD  15

 HEAD WILL BE SAVED ON UNIT   51 AT END OF TIME STEP    1, STRESS PERIOD   15
1
  VOLUMETRIC BUDGET FOR ENTIRE MODEL AT END OF TIME STEP    1, STRESS PERIOD  15
  ------------------------------------------------------------------------------

     CUMULATIVE VOLUMES      L**3       RATES FOR THIS TIME STEP      L**3/T
     ------------------                 ------------------------

           IN:                                      IN:
           ---                                      ---
             STORAGE =           0.4609               STORAGE =       7.5900E-09
       CONSTANT HEAD =       12045.4141         CONSTANT HEAD =         368.3641

            TOTAL IN =       12045.8750              TOTAL IN =         368.3641

          OUT:                                     OUT:
          ----                                     ----
             STORAGE =       2.2166E-06               STORAGE =       5.9420E-09
       CONSTANT HEAD =       12045.2266         CONSTANT HEAD =         368.3641

           TOTAL OUT =       12045.2266             TOTAL OUT =         368.3641

            IN - OUT =           0.6484              IN - OUT =           0.0000

 PERCENT DISCREPANCY =           0.01     PERCENT DISCREPANCY =           0.00






         TIME SUMMARY AT END OF TIME STEP    1 IN STRESS PERIOD   15
                    SECONDS     MINUTES      HOURS       DAYS        YEARS
                    -----------------------------------------------------------
   TIME STEP LENGTH 1.88352E+05  3139.2      52.320      2.1800     5.96851E-03
 STRESS PERIOD TIME 1.88352E+05  3139.2      52.320      2.1800     5.96851E-03
         TOTAL TIME 2.82528E+06  47088.      784.80      32.700     8.95277E-02
1
1
                            STRESS PERIOD NO.   16, LENGTH =   2.180000    
                            -----------------------------------------------

                              NUMBER OF TIME STEPS =     1

                               MULTIPLIER FOR DELT =     1.000

                            INITIAL TIME STEP SIZE =   2.180000    

 REUSING NON-PARAMETER SPECIFIED-HEAD DATA FROM LAST STRESS PERIOD


     20 TIME-VARIANT SPECIFIED-HEAD CELLS
 
 SOLVING FOR HEAD 
          0                 1           1             2    7     1       0.2501110433E-12       2    3    1       0.3637978807E-11      0.1653324948E-10      0.1524259021E-10      0.2501110433E-12

    ------------------------------------------------
       NWT REQUIRED            1 OUTER ITERATIONS 
       AND A TOTAL OF          1 INNER ITERATIONS.
    ------------------------------------------------

 OUTPUT CONTROL FOR STRESS PERIOD   16   TIME STEP    1
    SAVE HEAD FOR ALL LAYERS
    SAVE BUDGET
 UBDSV1 SAVING "         STORAGE" ON UNIT  53 AT TIME STEP  1, STRESS PERIOD  16
 UBDSV2 SAVING "   CONSTANT HEAD" ON UNIT  53 AT TIME STEP  1, STRESS PERIOD  16
 UBDSV1 SAVING "FLOW RIGHT FACE " ON UNIT  53 AT TIME STEP  1, STRESS PERIOD  16
 UBDSV1 SAVING "FLOW FRONT FACE " ON UNIT  53 AT TIME STEP  1, STRESS PERIOD  16

 HEAD WILL BE SAVED ON UNIT   51 AT END OF TIME STEP    1, STRESS PERIOD   16
1
  VOLUMETRIC BUDGET FOR ENTIRE MODEL AT END OF TIME STEP    1, STRESS PERIOD  16
  ------------------------------------------------------------------------------

     CUMULATIVE VOLUMES      L**3       RATES FOR THIS TIME STEP      L**3/T
     ------------------                 ------------------------

           IN:                                      IN:
           ---                                      ---
             STORAGE =           0.4609               STORAGE =       7.5900E-09
       CONSTANT HEAD =       12848.4473         CONSTANT HEAD =         368.3641

            TOTAL IN =       12848.9082              TOTAL IN =         368.3641

          OUT:                                     OUT:
          ----                                     ----
             STORAGE =       2.2295E-06               STORAGE =       5.9420E-09
       CONSTANT HEAD =       12848.2598         CONSTANT HEAD =         368.3641

           TOTAL OUT =       12848.2598             TOTAL OUT =         368.3641

            IN - OUT =           0.6484              IN - OUT =           0.0000

 PERCENT DISCREPANCY =           0.01     PERCENT DISCREPANCY =           0.00






         TIME SUMMARY AT END OF TIME STEP    1 IN STRESS PERIOD   16
                    SECONDS     MINUTES      HOURS       DAYS        YEARS
                    -----------------------------------------------------------
   TIME STEP LENGTH 1.88352E+05  3139.2      52.320      2.1800     5.96851E-03
 STRESS PERIOD TIME 1.88352E+05  3139.2      52.320      2.1800     5.96851E-03
         TOTAL TIME 3.01363E+06  50227.      837.12      34.880     9.54962E-02
1
1
                            STRESS PERIOD NO.   17, LENGTH =   2.180000    
                            -----------------------------------------------

                              NUMBER OF TIME STEPS =     1

                               MULTIPLIER FOR DELT =     1.000

                            INITIAL TIME STEP SIZE =   2.180000    

 REUSING NON-PARAMETER SPECIFIED-HEAD DATA FROM LAST STRESS PERIOD


     20 TIME-VARIANT SPECIFIED-HEAD CELLS
 
 SOLVING FOR HEAD 
          0                 1           1             6    5     1      -0.1953992526E-12       4    3    1      -0.3637978807E-11      0.1446570025E-10      0.1653324948E-10     -0.1953992526E-12

    ------------------------------------------------
       NWT REQUIRED            1 OUTER ITERATIONS 
       AND A TOTAL OF          1 INNER ITERATIONS.
    ------------------------------------------------

 OUTPUT CONTROL FOR STRESS PERIOD   17   TIME STEP    1
    SAVE HEAD FOR ALL LAYERS
    SAVE BUDGET
 UBDSV1 SAVING "         STORAGE" ON UNIT  53 AT TIME STEP  1, STRESS PERIOD  17
 UBDSV2 SAVING "   CONSTANT HEAD" ON UNIT  53 AT TIME STEP  1, STRESS PERIOD  17
 UBDSV1 SAVING "FLOW RIGHT FACE " ON UNIT  53 AT TIME STEP  1, STRESS PERIOD  17
 UBDSV1 SAVING "FLOW FRONT FACE " ON UNIT  53 AT TIME STEP  1, STRESS PERIOD  17

 HEAD WILL BE SAVED ON UNIT   51 AT END OF TIME STEP    1, STRESS PERIOD   17
1
  VOLUMETRIC BUDGET FOR ENTIRE MODEL AT END OF TIME STEP    1, STRESS PERIOD  17
  ------------------------------------------------------------------------------

     CUMULATIVE VOLUMES      L**3       RATES FOR THIS TIME STEP      L**3/T
     ------------------                 ------------------------

           IN:                                      IN:
           ---                                      ---
             STORAGE =           0.4609               STORAGE =       7.5900E-09
       CONSTANT HEAD =       13651.4805         CONSTANT HEAD =         368.3641

            TOTAL IN =       13651.9414              TOTAL IN =         368.3641

          OUT:                                     OUT:
          ----                                     ----
             STORAGE =       2.2425E-06               STORAGE =       5.9420E-09
       CONSTANT HEAD =       13651.2930         CONSTANT HEAD =         368.3641

           TOTAL OUT =       13651.2930             TOTAL OUT =         368.3641

            IN - OUT =           0.6484              IN - OUT =           0.0000

 PERCENT DISCREPANCY =           0.00     PERCENT DISCREPANCY =           0.00






         TIME SUMMARY AT END OF TIME STEP    1 IN STRESS PERIOD   17
                    SECONDS     MINUTES      HOURS       DAYS        YEARS
                    -----------------------------------------------------------
   TIME STEP LENGTH 1.88352E+05  3139.2      52.320      2.1800     5.96851E-03
 STRESS PERIOD TIME 1.88352E+05  3139.2      52.320      2.1800     5.96851E-03
         TOTAL TIME 3.20198E+06  53366.      889.44      37.060     0.10146    
1
1
                            STRESS PERIOD NO.   18, LENGTH =   2.180000    
                            -----------------------------------------------

                              NUMBER OF TIME STEPS =     1

                               MULTIPLIER FOR DELT =     1.000

                            INITIAL TIME STEP SIZE =   2.180000    

 REUSING NON-PARAMETER SPECIFIED-HEAD DATA FROM LAST STRESS PERIOD


     20 TIME-VARIANT SPECIFIED-HEAD CELLS
 
 SOLVING FOR HEAD 
          0                 1           1             4   10     1       0.3048228341E-12       4    4    1       0.4547473509E-11      0.1799174694E-10      0.1446570025E-10      0.3048228341E-12

    ------------------------------------------------
       NWT REQUIRED            1 OUTER ITERATIONS 
       AND A TOTAL OF          1 INNER ITERATIONS.
    ------------------------------------------------

 OUTPUT CONTROL FOR STRESS PERIOD   18   TIME STEP    1
    SAVE HEAD FOR ALL LAYERS
    SAVE BUDGET
 UBDSV1 SAVING "         STORAGE" ON UNIT  53 AT TIME STEP  1, STRESS PERIOD  18
 UBDSV2 SAVING "   CONSTANT HEAD" ON UNIT  53 AT TIME STEP  1, STRESS PERIOD  18
 UBDSV1 SAVING "FLOW RIGHT FACE " ON UNIT  53 AT TIME STEP  1, STRESS PERIOD  18
 UBDSV1 SAVING "FLOW FRONT FACE " ON UNIT  53 AT TIME STEP  1, STRESS PERIOD  18

 HEAD WILL BE SAVED ON UNIT   51 AT END OF TIME STEP    1, STRESS PERIOD   18
1
  VOLUMETRIC BUDGET FOR ENTIRE MODEL AT END OF TIME STEP    1, STRESS PERIOD  18
  ------------------------------------------------------------------------------

     CUMULATIVE VOLUMES      L**3       RATES FOR THIS TIME STEP      L**3/T
     ------------------                 ------------------------

           IN:                                      IN:
           ---                                      ---
             STORAGE =           0.4609               STORAGE =       7.5900E-09
       CONSTANT HEAD =       14454.5137         CONSTANT HEAD =         368.3641

            TOTAL IN =       14454.9746              TOTAL IN =         368.3641

          OUT:                                     OUT:
          ----                                     ----
             STORAGE =       2.2554E-06               STORAGE =       5.9420E-09
       CONSTANT HEAD =       14454.3262         CONSTANT HEAD =         368.3641

           TOTAL OUT =       14454.3262             TOTAL OUT =         368.3641

            IN - OUT =           0.6484              IN - OUT =           0.0000

 PERCENT DISCREPANCY =           0.00     PERCENT DISCREPANCY =           0.00






         TIME SUMMARY AT END OF TIME STEP    1 IN STRESS PERIOD   18
                    SECONDS     MINUTES      HOURS       DAYS        YEARS
                    -----------------------------------------------------------
   TIME STEP LENGTH 1.88352E+05  3139.2      52.320      2.1800     5.96851E-03
 STRESS PERIOD TIME 1.88352E+05  3139.2      52.320      2.1800     5.96851E-03
         TOTAL TIME 3.39034E+06  56506.      941.76      39.240     0.10743    
1
1
                            STRESS PERIOD NO.   19, LENGTH =   2.180000    
                            -----------------------------------------------

                              NUMBER OF TIME STEPS =     1

                               MULTIPLIER FOR DELT =     1.000

                            INITIAL TIME STEP SIZE =   2.180000    

 REUSING NON-PARAMETER SPECIFIED-HEAD DATA FROM LAST STRESS PERIOD


     20 TIME-VARIANT SPECIFIED-HEAD CELLS
 
 SOLVING FOR HEAD 
          0                 1           1             1   10     1      -0.2735589536E-12       8    5    1      -0.4547473509E-11      0.1607459939E-10      0.1799174694E-10     -0.2735589536E-12

    ------------------------------------------------
       NWT REQUIRED            1 OUTER ITERATIONS 
       AND A TOTAL OF          1 INNER ITERATIONS.
    ------------------------------------------------

 OUTPUT CONTROL FOR STRESS PERIOD   19   TIME STEP    1
    SAVE HEAD FOR ALL LAYERS
    SAVE BUDGET
 UBDSV1 SAVING "         STORAGE" ON UNIT  53 AT TIME STEP  1, STRESS PERIOD  19
 UBDSV2 SAVING "   CONSTANT HEAD" ON UNIT  53 AT TIME STEP  1, STRESS PERIOD  19
 UBDSV1 SAVING "FLOW RIGHT FACE " ON UNIT  53 AT TIME STEP  1, STRESS PERIOD  19
 UBDSV1 SAVING "FLOW FRONT FACE " ON UNIT  53 AT TIME STEP  1, STRESS PERIOD  19

 HEAD WILL BE SAVED ON UNIT   51 AT END OF TIME STEP    1, STRESS PERIOD   19
1
  VOLUMETRIC BUDGET FOR ENTIRE MODEL AT END OF TIME STEP    1, STRESS PERIOD  19
  ------------------------------------------------------------------------------

     CUMULATIVE VOLUMES      L**3       RATES FOR THIS TIME STEP      L**3/T
     ------------------                 ------------------------

           IN:                                      IN:
           ---                                      ---
             STORAGE =           0.4609               STORAGE =       7.5900E-09
       CONSTANT HEAD =       15257.5469         CONSTANT HEAD =         368.3641

            TOTAL IN =       15258.0078              TOTAL IN =         368.3641

          OUT:                                     OUT:
          ----                                     ----
             STORAGE =       2.2684E-06               STORAGE =       5.9420E-09
       CONSTANT HEAD =       15257.3594         CONSTANT HEAD =         368.3641

           TOTAL OUT =       15257.3594             TOTAL OUT =         368.3641

            IN - OUT =           0.6484              IN - OUT =           0.0000

 PERCENT DISCREPANCY =           0.00     PERCENT DISCREPANCY =           0.00






         TIME SUMMARY AT END OF TIME STEP    1 IN STRESS PERIOD   19
                    SECONDS     MINUTES      HOURS       DAYS        YEARS
                    -----------------------------------------------------------
   TIME STEP LENGTH 1.88352E+05  3139.2      52.320      2.1800     5.96851E-03
 STRESS PERIOD TIME 1.88352E+05  3139.2      52.320      2.1800     5.96851E-03
         TOTAL TIME 3.57869E+06  59645.      994.08      41.420     0.11340    
1
1
                            STRESS PERIOD NO.   20, LENGTH =   2.180000    
                            -----------------------------------------------

                              NUMBER OF TIME STEPS =     1

                               MULTIPLIER FOR DELT =     1.000

                            INITIAL TIME STEP SIZE =   2.180000    

 REUSING NON-PARAMETER SPECIFIED-HEAD DATA FROM LAST STRESS PERIOD


     20 TIME-VARIANT SPECIFIED-HEAD CELLS
 
 SOLVING FOR HEAD 
          0                 1           1             1   11     1       0.1406874619E-12       6    3    1      -0.3637978807E-11      0.1497348335E-10      0.1607459939E-10      0.1406874619E-12

    ------------------------------------------------
       NWT REQUIRED            1 OUTER ITERATIONS 
       AND A TOTAL OF          1 INNER ITERATIONS.
    ------------------------------------------------

 OUTPUT CONTROL FOR STRESS PERIOD   20   TIME STEP    1
    SAVE HEAD FOR ALL LAYERS
    SAVE BUDGET
 UBDSV1 SAVING "         STORAGE" ON UNIT  53 AT TIME STEP  1, STRESS PERIOD  20
 UBDSV2 SAVING "   CONSTANT HEAD" ON UNIT  53 AT TIME STEP  1, STRESS PERIOD  20
 UBDSV1 SAVING "FLOW RIGHT FACE " ON UNIT  53 AT TIME STEP  1, STRESS PERIOD  20
 UBDSV1 SAVING "FLOW FRONT FACE " ON UNIT  53 AT TIME STEP  1, STRESS PERIOD  20

 HEAD WILL BE SAVED ON UNIT   51 AT END OF TIME STEP    1, STRESS PERIOD   20
1
  VOLUMETRIC BUDGET FOR ENTIRE MODEL AT END OF TIME STEP    1, STRESS PERIOD  20
  ------------------------------------------------------------------------------

     CUMULATIVE VOLUMES      L**3       RATES FOR THIS TIME STEP      L**3/T
     ------------------                 ------------------------

           IN:                                      IN:
           ---                                      ---
             STORAGE =           0.4609               STORAGE =       7.5900E-09
       CONSTANT HEAD =       16060.5801         CONSTANT HEAD =         368.3641

            TOTAL IN =       16061.0410              TOTAL IN =         368.3641

          OUT:                                     OUT:
          ----                                     ----
             STORAGE =       2.2813E-06               STORAGE =       5.9420E-09
       CONSTANT HEAD =       16060.3926         CONSTANT HEAD =         368.3641

           TOTAL OUT =       16060.3926             TOTAL OUT =         368.3641

            IN - OUT =           0.6484              IN - OUT =           0.0000

 PERCENT DISCREPANCY =           0.00     PERCENT DISCREPANCY =           0.00






         TIME SUMMARY AT END OF TIME STEP    1 IN STRESS PERIOD   20
                    SECONDS     MINUTES      HOURS       DAYS        YEARS
                    -----------------------------------------------------------
   TIME STEP LENGTH 1.88352E+05  3139.2      52.320      2.1800     5.96851E-03
 STRESS PERIOD TIME 1.88352E+05  3139.2      52.320      2.1800     5.96851E-03
         TOTAL TIME 3.76704E+06  62784.      1046.4      43.600     0.11937    
1
1
                            STRESS PERIOD NO.   21, LENGTH =   2.180000    
                            -----------------------------------------------

                              NUMBER OF TIME STEPS =     1

                               MULTIPLIER FOR DELT =     1.000

                            INITIAL TIME STEP SIZE =   2.180000    

 REUSING NON-PARAMETER SPECIFIED-HEAD DATA FROM LAST STRESS PERIOD


     20 TIME-VARIANT SPECIFIED-HEAD CELLS
 
 SOLVING FOR HEAD 
          0                 1           1             1   11     1      -0.4376943258E-12       5    6    1      -0.3637978807E-11      0.1433955807E-10      0.1497348335E-10     -0.4376943258E-12

    ------------------------------------------------
       NWT REQUIRED            1 OUTER ITERATIONS 
       AND A TOTAL OF          1 INNER ITERATIONS.
    ------------------------------------------------

 OUTPUT CONTROL FOR STRESS PERIOD   21   TIME STEP    1
    SAVE HEAD FOR ALL LAYERS
    SAVE BUDGET
 UBDSV1 SAVING "         STORAGE" ON UNIT  53 AT TIME STEP  1, STRESS PERIOD  21
 UBDSV2 SAVING "   CONSTANT HEAD" ON UNIT  53 AT TIME STEP  1, STRESS PERIOD  21
 UBDSV1 SAVING "FLOW RIGHT FACE " ON UNIT  53 AT TIME STEP  1, STRESS PERIOD  21
 UBDSV1 SAVING "FLOW FRONT FACE " ON UNIT  53 AT TIME STEP  1, STRESS PERIOD  21

 HEAD WILL BE SAVED ON UNIT   51 AT END OF TIME STEP    1, STRESS PERIOD   21
1
  VOLUMETRIC BUDGET FOR ENTIRE MODEL AT END OF TIME STEP    1, STRESS PERIOD  21
  ------------------------------------------------------------------------------

     CUMULATIVE VOLUMES      L**3       RATES FOR THIS TIME STEP      L**3/T
     ------------------                 ------------------------

           IN:                                      IN:
           ---                                      ---
             STORAGE =           0.4609               STORAGE =       7.5900E-09
       CONSTANT HEAD =       16863.6133         CONSTANT HEAD =         368.3641

            TOTAL IN =       16864.0742              TOTAL IN =         368.3641

          OUT:                                     OUT:
          ----                                     ----
             STORAGE =       2.2943E-06               STORAGE =       5.9420E-09
       CONSTANT HEAD =       16863.4258         CONSTANT HEAD =         368.3641

           TOTAL OUT =       16863.4258             TOTAL OUT =         368.3641

            IN - OUT =           0.6484              IN - OUT =           0.0000

 PERCENT DISCREPANCY =           0.00     PERCENT DISCREPANCY =           0.00






         TIME SUMMARY AT END OF TIME STEP    1 IN STRESS PERIOD   21
                    SECONDS     MINUTES      HOURS       DAYS        YEARS
                    -----------------------------------------------------------
   TIME STEP LENGTH 1.88352E+05  3139.2      52.320      2.1800     5.96851E-03
 STRESS PERIOD TIME 1.88352E+05  3139.2      52.320      2.1800     5.96851E-03
         TOTAL TIME 3.95539E+06  65923.      1098.7      45.780     0.12534    
1
1
                            STRESS PERIOD NO.   22, LENGTH =   2.180000    
                            -----------------------------------------------

                              NUMBER OF TIME STEPS =     1

                               MULTIPLIER FOR DELT =     1.000

                            INITIAL TIME STEP SIZE =   2.180000    

 REUSING NON-PARAMETER SPECIFIED-HEAD DATA FROM LAST STRESS PERIOD


     20 TIME-VARIANT SPECIFIED-HEAD CELLS
 
 SOLVING FOR HEAD 
          0                 1           1             4    9     1       0.4924061165E-12       4    9    1       0.4547473509E-11      0.1605459271E-10      0.1433955807E-10      0.4924061165E-12

    ------------------------------------------------
       NWT REQUIRED            1 OUTER ITERATIONS 
       AND A TOTAL OF          1 INNER ITERATIONS.
    ------------------------------------------------

 OUTPUT CONTROL FOR STRESS PERIOD   22   TIME STEP    1
    SAVE HEAD FOR ALL LAYERS
    SAVE BUDGET
 UBDSV1 SAVING "         STORAGE" ON UNIT  53 AT TIME STEP  1, STRESS PERIOD  22
 UBDSV2 SAVING "   CONSTANT HEAD" ON UNIT  53 AT TIME STEP  1, STRESS PERIOD  22
 UBDSV1 SAVING "FLOW RIGHT FACE " ON UNIT  53 AT TIME STEP  1, STRESS PERIOD  22
 UBDSV1 SAVING "FLOW FRONT FACE " ON UNIT  53 AT TIME STEP  1, STRESS PERIOD  22

 HEAD WILL BE SAVED ON UNIT   51 AT END OF TIME STEP    1, STRESS PERIOD   22
1
  VOLUMETRIC BUDGET FOR ENTIRE MODEL AT END OF TIME STEP    1, STRESS PERIOD  22
  ------------------------------------------------------------------------------

     CUMULATIVE VOLUMES      L**3       RATES FOR THIS TIME STEP      L**3/T
     ------------------                 ------------------------

           IN:                                      IN:
           ---                                      ---
             STORAGE =           0.4609               STORAGE =       7.5900E-09
       CONSTANT HEAD =       17666.6465         CONSTANT HEAD =         368.3641

            TOTAL IN =       17667.1074              TOTAL IN =         368.3641

          OUT:                                     OUT:
          ----                                     ----
             STORAGE =       2.3072E-06               STORAGE =       5.9420E-09
       CONSTANT HEAD =       17666.4590         CONSTANT HEAD =         368.3641

           TOTAL OUT =       17666.4590             TOTAL OUT =         368.3641

            IN - OUT =           0.6484              IN - OUT =           0.0000

 PERCENT DISCREPANCY =           0.00     PERCENT DISCREPANCY =           0.00






         TIME SUMMARY AT END OF TIME STEP    1 IN STRESS PERIOD   22
                    SECONDS     MINUTES      HOURS       DAYS        YEARS
                    -----------------------------------------------------------
   TIME STEP LENGTH 1.88352E+05  3139.2      52.320      2.1800     5.96851E-03
 STRESS PERIOD TIME 1.88352E+05  3139.2      52.320      2.1800     5.96851E-03
         TOTAL TIME 4.14374E+06  69062.      1151.0      47.960     0.13131    
1
1
                            STRESS PERIOD NO.   23, LENGTH =   2.180000    
                            -----------------------------------------------

                              NUMBER OF TIME STEPS =     1

                               MULTIPLIER FOR DELT =     1.000

                            INITIAL TIME STEP SIZE =   2.180000    

 REUSING NON-PARAMETER SPECIFIED-HEAD DATA FROM LAST STRESS PERIOD


     20 TIME-VARIANT SPECIFIED-HEAD CELLS
 
 SOLVING FOR HEAD 
          0                 1           1             4    9     1      -0.1250555217E-12       2    6    1       0.3637978807E-11      0.1495076417E-10      0.1605459271E-10     -0.1250555217E-12

    ------------------------------------------------
       NWT REQUIRED            1 OUTER ITERATIONS 
       AND A TOTAL OF          1 INNER ITERATIONS.
    ------------------------------------------------

 OUTPUT CONTROL FOR STRESS PERIOD   23   TIME STEP    1
    SAVE HEAD FOR ALL LAYERS
    SAVE BUDGET
 UBDSV1 SAVING "         STORAGE" ON UNIT  53 AT TIME STEP  1, STRESS PERIOD  23
 UBDSV2 SAVING "   CONSTANT HEAD" ON UNIT  53 AT TIME STEP  1, STRESS PERIOD  23
 UBDSV1 SAVING "FLOW RIGHT FACE " ON UNIT  53 AT TIME STEP  1, STRESS PERIOD  23
 UBDSV1 SAVING "FLOW FRONT FACE " ON UNIT  53 AT TIME STEP  1, STRESS PERIOD  23

 HEAD WILL BE SAVED ON UNIT   51 AT END OF TIME STEP    1, STRESS PERIOD   23
1
  VOLUMETRIC BUDGET FOR ENTIRE MODEL AT END OF TIME STEP    1, STRESS PERIOD  23
  ------------------------------------------------------------------------------

     CUMULATIVE VOLUMES      L**3       RATES FOR THIS TIME STEP      L**3/T
     ------------------                 ------------------------

           IN:                                      IN:
           ---                                      ---
             STORAGE =           0.4609               STORAGE =       7.5900E-09
       CONSTANT HEAD =       18469.6797         CONSTANT HEAD =         368.3641

            TOTAL IN =       18470.1406              TOTAL IN =         368.3641

          OUT:                                     OUT:
          ----                                     ----
             STORAGE =       2.3202E-06               STORAGE =       5.9420E-09
       CONSTANT HEAD =       18469.4922         CONSTANT HEAD =         368.3641

           TOTAL OUT =       18469.4922             TOTAL OUT =         368.3641

            IN - OUT =           0.6484              IN - OUT =           0.0000

 PERCENT DISCREPANCY =           0.00     PERCENT DISCREPANCY =           0.00






         TIME SUMMARY AT END OF TIME STEP    1 IN STRESS PERIOD   23
                    SECONDS     MINUTES      HOURS       DAYS        YEARS
                    -----------------------------------------------------------
   TIME STEP LENGTH 1.88352E+05  3139.2      52.320      2.1800     5.96851E-03
 STRESS PERIOD TIME 1.88352E+05  3139.2      52.320      2.1800     5.96851E-03
         TOTAL TIME 4.33210E+06  72202.      1203.4      50.140     0.13728    
1
1
                            STRESS PERIOD NO.   24, LENGTH =   2.180000    
                            -----------------------------------------------

                              NUMBER OF TIME STEPS =     1

                               MULTIPLIER FOR DELT =     1.000

                            INITIAL TIME STEP SIZE =   2.180000    

 REUSING NON-PARAMETER SPECIFIED-HEAD DATA FROM LAST STRESS PERIOD


     20 TIME-VARIANT SPECIFIED-HEAD CELLS
 
 SOLVING FOR HEAD 
          0                 1           1             3   10     1       0.3282707444E-12       5    6    1       0.3637978807E-11      0.1316617784E-10      0.1495076417E-10      0.3282707444E-12

    ------------------------------------------------
       NWT REQUIRED            1 OUTER ITERATIONS 
       AND A TOTAL OF          1 INNER ITERATIONS.
    ------------------------------------------------

 OUTPUT CONTROL FOR STRESS PERIOD   24   TIME STEP    1
    SAVE HEAD FOR ALL LAYERS
    SAVE BUDGET
 UBDSV1 SAVING "         STORAGE" ON UNIT  53 AT TIME STEP  1, STRESS PERIOD  24
 UBDSV2 SAVING "   CONSTANT HEAD" ON UNIT  53 AT TIME STEP  1, STRESS PERIOD  24
 UBDSV1 SAVING "FLOW RIGHT FACE " ON UNIT  53 AT TIME STEP  1, STRESS PERIOD  24
 UBDSV1 SAVING "FLOW FRONT FACE " ON UNIT  53 AT TIME STEP  1, STRESS PERIOD  24

 HEAD WILL BE SAVED ON UNIT   51 AT END OF TIME STEP    1, STRESS PERIOD   24
1
  VOLUMETRIC BUDGET FOR ENTIRE MODEL AT END OF TIME STEP    1, STRESS PERIOD  24
  ------------------------------------------------------------------------------

     CUMULATIVE VOLUMES      L**3       RATES FOR THIS TIME STEP      L**3/T
     ------------------                 ------------------------

           IN:                                      IN:
           ---                                      ---
             STORAGE =           0.4609               STORAGE =       7.5900E-09
       CONSTANT HEAD =       19272.7129         CONSTANT HEAD =         368.3641

            TOTAL IN =       19273.1738              TOTAL IN =         368.3641

          OUT:                                     OUT:
          ----                                     ----
             STORAGE =       2.3331E-06               STORAGE =       5.9420E-09
       CONSTANT HEAD =       19272.5254         CONSTANT HEAD =         368.3641

           TOTAL OUT =       19272.5254             TOTAL OUT =         368.3641

            IN - OUT =           0.6484              IN - OUT =           0.0000

 PERCENT DISCREPANCY =           0.00     PERCENT DISCREPANCY =           0.00






         TIME SUMMARY AT END OF TIME STEP    1 IN STRESS PERIOD   24
                    SECONDS     MINUTES      HOURS       DAYS        YEARS
                    -----------------------------------------------------------
   TIME STEP LENGTH 1.88352E+05  3139.2      52.320      2.1800     5.96851E-03
 STRESS PERIOD TIME 1.88352E+05  3139.2      52.320      2.1800     5.96851E-03
         TOTAL TIME 4.52045E+06  75341.      1255.7      52.320     0.14324    
1
1
                            STRESS PERIOD NO.   25, LENGTH =   2.180000    
                            -----------------------------------------------

                              NUMBER OF TIME STEPS =     1

                               MULTIPLIER FOR DELT =     1.000

                            INITIAL TIME STEP SIZE =   2.180000    

 REUSING NON-PARAMETER SPECIFIED-HEAD DATA FROM LAST STRESS PERIOD


     20 TIME-VARIANT SPECIFIED-HEAD CELLS
 
 SOLVING FOR HEAD 
          0                 1           1             6    9     1      -0.3204547743E-12       7    2    1      -0.3637978807E-11      0.1534111237E-10      0.1316617784E-10     -0.3204547743E-12

    ------------------------------------------------
       NWT REQUIRED            1 OUTER ITERATIONS 
       AND A TOTAL OF          1 INNER ITERATIONS.
    ------------------------------------------------

 OUTPUT CONTROL FOR STRESS PERIOD   25   TIME STEP    1
    SAVE HEAD FOR ALL LAYERS
    SAVE BUDGET
 UBDSV1 SAVING "         STORAGE" ON UNIT  53 AT TIME STEP  1, STRESS PERIOD  25
 UBDSV2 SAVING "   CONSTANT HEAD" ON UNIT  53 AT TIME STEP  1, STRESS PERIOD  25
 UBDSV1 SAVING "FLOW RIGHT FACE " ON UNIT  53 AT TIME STEP  1, STRESS PERIOD  25
 UBDSV1 SAVING "FLOW FRONT FACE " ON UNIT  53 AT TIME STEP  1, STRESS PERIOD  25

 HEAD WILL BE SAVED ON UNIT   51 AT END OF TIME STEP    1, STRESS PERIOD   25
1
  VOLUMETRIC BUDGET FOR ENTIRE MODEL AT END OF TIME STEP    1, STRESS PERIOD  25
  ------------------------------------------------------------------------------

     CUMULATIVE VOLUMES      L**3       RATES FOR THIS TIME STEP      L**3/T
     ------------------                 ------------------------

           IN:                                      IN:
           ---                                      ---
             STORAGE =           0.4609               STORAGE =       7.5900E-09
       CONSTANT HEAD =       20075.7461         CONSTANT HEAD =         368.3641

            TOTAL IN =       20076.2070              TOTAL IN =         368.3641

          OUT:                                     OUT:
          ----                                     ----
             STORAGE =       2.3461E-06               STORAGE =       5.9420E-09
       CONSTANT HEAD =       20075.5586         CONSTANT HEAD =         368.3641

           TOTAL OUT =       20075.5586             TOTAL OUT =         368.3641

            IN - OUT =           0.6484              IN - OUT =           0.0000

 PERCENT DISCREPANCY =           0.00     PERCENT DISCREPANCY =           0.00






         TIME SUMMARY AT END OF TIME STEP    1 IN STRESS PERIOD   25
                    SECONDS     MINUTES      HOURS       DAYS        YEARS
                    -----------------------------------------------------------
   TIME STEP LENGTH 1.88352E+05  3139.2      52.320      2.1800     5.96851E-03
 STRESS PERIOD TIME 1.88352E+05  3139.2      52.320      2.1800     5.96851E-03
         TOTAL TIME 4.70880E+06  78480.      1308.0      54.500     0.14921    
1
1
                            STRESS PERIOD NO.   26, LENGTH =   2.180000    
                            -----------------------------------------------

                              NUMBER OF TIME STEPS =     1

                               MULTIPLIER FOR DELT =     1.000

                            INITIAL TIME STEP SIZE =   2.180000    

 REUSING NON-PARAMETER SPECIFIED-HEAD DATA FROM LAST STRESS PERIOD


     20 TIME-VARIANT SPECIFIED-HEAD CELLS
 
 SOLVING FOR HEAD 
          0                 1           1             2    8     1      -0.9379164125E-13       9    4    1      -0.4547473509E-11      0.1517849285E-10      0.1534111237E-10     -0.9379164125E-13

    ------------------------------------------------
       NWT REQUIRED            1 OUTER ITERATIONS 
       AND A TOTAL OF          1 INNER ITERATIONS.
    ------------------------------------------------

 OUTPUT CONTROL FOR STRESS PERIOD   26   TIME STEP    1
    SAVE HEAD FOR ALL LAYERS
    SAVE BUDGET
 UBDSV1 SAVING "         STORAGE" ON UNIT  53 AT TIME STEP  1, STRESS PERIOD  26
 UBDSV2 SAVING "   CONSTANT HEAD" ON UNIT  53 AT TIME STEP  1, STRESS PERIOD  26
 UBDSV1 SAVING "FLOW RIGHT FACE " ON UNIT  53 AT TIME STEP  1, STRESS PERIOD  26
 UBDSV1 SAVING "FLOW FRONT FACE " ON UNIT  53 AT TIME STEP  1, STRESS PERIOD  26

 HEAD WILL BE SAVED ON UNIT   51 AT END OF TIME STEP    1, STRESS PERIOD   26
1
  VOLUMETRIC BUDGET FOR ENTIRE MODEL AT END OF TIME STEP    1, STRESS PERIOD  26
  ------------------------------------------------------------------------------

     CUMULATIVE VOLUMES      L**3       RATES FOR THIS TIME STEP      L**3/T
     ------------------                 ------------------------

           IN:                                      IN:
           ---                                      ---
             STORAGE =           0.4609               STORAGE =       7.5900E-09
       CONSTANT HEAD =       20878.7793         CONSTANT HEAD =         368.3641

            TOTAL IN =       20879.2402              TOTAL IN =         368.3641

          OUT:                                     OUT:
          ----                                     ----
             STORAGE =       2.3590E-06               STORAGE =       5.9420E-09
       CONSTANT HEAD =       20878.5918         CONSTANT HEAD =         368.3641

           TOTAL OUT =       20878.5918             TOTAL OUT =         368.3641

            IN - OUT =           0.6484              IN - OUT =           0.0000

 PERCENT DISCREPANCY =           0.00     PERCENT DISCREPANCY =           0.00






         TIME SUMMARY AT END OF TIME STEP    1 IN STRESS PERIOD   26
                    SECONDS     MINUTES      HOURS       DAYS        YEARS
                    -----------------------------------------------------------
   TIME STEP LENGTH 1.88352E+05  3139.2      52.320      2.1800     5.96851E-03
 STRESS PERIOD TIME 1.88352E+05  3139.2      52.320      2.1800     5.96851E-03
         TOTAL TIME 4.89715E+06  81619.      1360.3      56.680     0.15518    
1
1
                            STRESS PERIOD NO.   27, LENGTH =   2.180000    
                            -----------------------------------------------

                              NUMBER OF TIME STEPS =     1

                               MULTIPLIER FOR DELT =     1.000

                            INITIAL TIME STEP SIZE =   2.180000    

 REUSING NON-PARAMETER SPECIFIED-HEAD DATA FROM LAST STRESS PERIOD


     20 TIME-VARIANT SPECIFIED-HEAD CELLS
 
 SOLVING FOR HEAD 
          0                 1           1             6    8     1      -0.1563194021E-12       4    3    1      -0.3637978807E-11      0.1543805738E-10      0.1517849285E-10     -0.1563194021E-12

    ------------------------------------------------
       NWT REQUIRED            1 OUTER ITERATIONS 
       AND A TOTAL OF          1 INNER ITERATIONS.
    ------------------------------------------------

 OUTPUT CONTROL FOR STRESS PERIOD   27   TIME STEP    1
    SAVE HEAD FOR ALL LAYERS
    SAVE BUDGET
 UBDSV1 SAVING "         STORAGE" ON UNIT  53 AT TIME STEP  1, STRESS PERIOD  27
 UBDSV2 SAVING "   CONSTANT HEAD" ON UNIT  53 AT TIME STEP  1, STRESS PERIOD  27
 UBDSV1 SAVING "FLOW RIGHT FACE " ON UNIT  53 AT TIME STEP  1, STRESS PERIOD  27
 UBDSV1 SAVING "FLOW FRONT FACE " ON UNIT  53 AT TIME STEP  1, STRESS PERIOD  27

 HEAD WILL BE SAVED ON UNIT   51 AT END OF TIME STEP    1, STRESS PERIOD   27
1
  VOLUMETRIC BUDGET FOR ENTIRE MODEL AT END OF TIME STEP    1, STRESS PERIOD  27
  ------------------------------------------------------------------------------

     CUMULATIVE VOLUMES      L**3       RATES FOR THIS TIME STEP      L**3/T
     ------------------                 ------------------------

           IN:                                      IN:
           ---                                      ---
             STORAGE =           0.4609               STORAGE =       7.5900E-09
       CONSTANT HEAD =       21681.8125         CONSTANT HEAD =         368.3641

            TOTAL IN =       21682.2734              TOTAL IN =         368.3641

          OUT:                                     OUT:
          ----                                     ----
             STORAGE =       2.3720E-06               STORAGE =       5.9420E-09
       CONSTANT HEAD =       21681.6250         CONSTANT HEAD =         368.3641

           TOTAL OUT =       21681.6250             TOTAL OUT =         368.3641

            IN - OUT =           0.6484              IN - OUT =           0.0000

 PERCENT DISCREPANCY =           0.00     PERCENT DISCREPANCY =           0.00






         TIME SUMMARY AT END OF TIME STEP    1 IN STRESS PERIOD   27
                    SECONDS     MINUTES      HOURS       DAYS        YEARS
                    -----------------------------------------------------------
   TIME STEP LENGTH 1.88352E+05  3139.2      52.320      2.1800     5.96851E-03
 STRESS PERIOD TIME 1.88352E+05  3139.2      52.320      2.1800     5.96851E-03
         TOTAL TIME 5.08550E+06  84758.      1412.6      58.860     0.16115    
1
1
                            STRESS PERIOD NO.   28, LENGTH =   2.180000    
                            -----------------------------------------------

                              NUMBER OF TIME STEPS =     1

                               MULTIPLIER FOR DELT =     1.000

                            INITIAL TIME STEP SIZE =   2.180000    

 REUSING NON-PARAMETER SPECIFIED-HEAD DATA FROM LAST STRESS PERIOD


     20 TIME-VARIANT SPECIFIED-HEAD CELLS
 
 SOLVING FOR HEAD 
          0                 1           1             6   10     1       0.5314859671E-12       5    6    1       0.3637978807E-11      0.1522658380E-10      0.1543805738E-10      0.5314859671E-12

    ------------------------------------------------
       NWT REQUIRED            1 OUTER ITERATIONS 
       AND A TOTAL OF          1 INNER ITERATIONS.
    ------------------------------------------------

 OUTPUT CONTROL FOR STRESS PERIOD   28   TIME STEP    1
    SAVE HEAD FOR ALL LAYERS
    SAVE BUDGET
 UBDSV1 SAVING "         STORAGE" ON UNIT  53 AT TIME STEP  1, STRESS PERIOD  28
 UBDSV2 SAVING "   CONSTANT HEAD" ON UNIT  53 AT TIME STEP  1, STRESS PERIOD  28
 UBDSV1 SAVING "FLOW RIGHT FACE " ON UNIT  53 AT TIME STEP  1, STRESS PERIOD  28
 UBDSV1 SAVING "FLOW FRONT FACE " ON UNIT  53 AT TIME STEP  1, STRESS PERIOD  28

 HEAD WILL BE SAVED ON UNIT   51 AT END OF TIME STEP    1, STRESS PERIOD   28
1
  VOLUMETRIC BUDGET FOR ENTIRE MODEL AT END OF TIME STEP    1, STRESS PERIOD  28
  ------------------------------------------------------------------------------

     CUMULATIVE VOLUMES      L**3       RATES FOR THIS TIME STEP      L**3/T
     ------------------                 ------------------------

           IN:                                      IN:
           ---                                      ---
             STORAGE =           0.4609               STORAGE =       7.5900E-09
       CONSTANT HEAD =       22484.8457         CONSTANT HEAD =         368.3641

            TOTAL IN =       22485.3066              TOTAL IN =         368.3641

          OUT:                                     OUT:
          ----                                     ----
             STORAGE =       2.3850E-06               STORAGE =       5.9420E-09
       CONSTANT HEAD =       22484.6582         CONSTANT HEAD =         368.3641

           TOTAL OUT =       22484.6582             TOTAL OUT =         368.3641

            IN - OUT =           0.6484              IN - OUT =           0.0000

 PERCENT DISCREPANCY =           0.00     PERCENT DISCREPANCY =           0.00






         TIME SUMMARY AT END OF TIME STEP    1 IN STRESS PERIOD   28
                    SECONDS     MINUTES      HOURS       DAYS        YEARS
                    -----------------------------------------------------------
   TIME STEP LENGTH 1.88352E+05  3139.2      52.320      2.1800     5.96851E-03
 STRESS PERIOD TIME 1.88352E+05  3139.2      52.320      2.1800     5.96851E-03
         TOTAL TIME 5.27386E+06  87898.      1465.0      61.040     0.16712    
1
1
                            STRESS PERIOD NO.   29, LENGTH =   2.180000    
                            -----------------------------------------------

                              NUMBER OF TIME STEPS =     1

                               MULTIPLIER FOR DELT =     1.000

                            INITIAL TIME STEP SIZE =   2.180000    

 REUSING NON-PARAMETER SPECIFIED-HEAD DATA FROM LAST STRESS PERIOD


     20 TIME-VARIANT SPECIFIED-HEAD CELLS
 
 SOLVING FOR HEAD 
          0                 1           1             6    8     1      -0.5080380568E-12       8    3    1      -0.3637978807E-11      0.1663368491E-10      0.1522658380E-10     -0.5080380568E-12

    ------------------------------------------------
       NWT REQUIRED            1 OUTER ITERATIONS 
       AND A TOTAL OF          1 INNER ITERATIONS.
    ------------------------------------------------

 OUTPUT CONTROL FOR STRESS PERIOD   29   TIME STEP    1
    SAVE HEAD FOR ALL LAYERS
    SAVE BUDGET
 UBDSV1 SAVING "         STORAGE" ON UNIT  53 AT TIME STEP  1, STRESS PERIOD  29
 UBDSV2 SAVING "   CONSTANT HEAD" ON UNIT  53 AT TIME STEP  1, STRESS PERIOD  29
 UBDSV1 SAVING "FLOW RIGHT FACE " ON UNIT  53 AT TIME STEP  1, STRESS PERIOD  29
 UBDSV1 SAVING "FLOW FRONT FACE " ON UNIT  53 AT TIME STEP  1, STRESS PERIOD  29

 HEAD WILL BE SAVED ON UNIT   51 AT END OF TIME STEP    1, STRESS PERIOD   29
1
  VOLUMETRIC BUDGET FOR ENTIRE MODEL AT END OF TIME STEP    1, STRESS PERIOD  29
  ------------------------------------------------------------------------------

     CUMULATIVE VOLUMES      L**3       RATES FOR THIS TIME STEP      L**3/T
     ------------------                 ------------------------

           IN:                                      IN:
           ---                                      ---
             STORAGE =           0.4609               STORAGE =       7.5900E-09
       CONSTANT HEAD =       23287.8789         CONSTANT HEAD =         368.3641

            TOTAL IN =       23288.3398              TOTAL IN =         368.3641

          OUT:                                     OUT:
          ----                                     ----
             STORAGE =       2.3979E-06               STORAGE =       5.9420E-09
       CONSTANT HEAD =       23287.6914         CONSTANT HEAD =         368.3641

           TOTAL OUT =       23287.6914             TOTAL OUT =         368.3641

            IN - OUT =           0.6484              IN - OUT =           0.0000

 PERCENT DISCREPANCY =           0.00     PERCENT DISCREPANCY =           0.00






         TIME SUMMARY AT END OF TIME STEP    1 IN STRESS PERIOD   29
                    SECONDS     MINUTES      HOURS       DAYS        YEARS
                    -----------------------------------------------------------
   TIME STEP LENGTH 1.88352E+05  3139.2      52.320      2.1800     5.96851E-03
 STRESS PERIOD TIME 1.88352E+05  3139.2      52.320      2.1800     5.96851E-03
         TOTAL TIME 5.46221E+06  91037.      1517.3      63.220     0.17309    
1
1
                            STRESS PERIOD NO.   30, LENGTH =   2.180000    
                            -----------------------------------------------

                              NUMBER OF TIME STEPS =     1

                               MULTIPLIER FOR DELT =     1.000

                            INITIAL TIME STEP SIZE =   2.180000    

 REUSING NON-PARAMETER SPECIFIED-HEAD DATA FROM LAST STRESS PERIOD


     20 TIME-VARIANT SPECIFIED-HEAD CELLS
 
 SOLVING FOR HEAD 
          0                 1           1             2   11     1       0.2188471629E-12       6    5    1       0.4547473509E-11      0.1534737376E-10      0.1663368491E-10      0.2188471629E-12

    ------------------------------------------------
       NWT REQUIRED            1 OUTER ITERATIONS 
       AND A TOTAL OF          1 INNER ITERATIONS.
    ------------------------------------------------

 OUTPUT CONTROL FOR STRESS PERIOD   30   TIME STEP    1
    SAVE HEAD FOR ALL LAYERS
    SAVE BUDGET
 UBDSV1 SAVING "         STORAGE" ON UNIT  53 AT TIME STEP  1, STRESS PERIOD  30
 UBDSV2 SAVING "   CONSTANT HEAD" ON UNIT  53 AT TIME STEP  1, STRESS PERIOD  30
 UBDSV1 SAVING "FLOW RIGHT FACE " ON UNIT  53 AT TIME STEP  1, STRESS PERIOD  30
 UBDSV1 SAVING "FLOW FRONT FACE " ON UNIT  53 AT TIME STEP  1, STRESS PERIOD  30

 HEAD WILL BE SAVED ON UNIT   51 AT END OF TIME STEP    1, STRESS PERIOD   30
1
  VOLUMETRIC BUDGET FOR ENTIRE MODEL AT END OF TIME STEP    1, STRESS PERIOD  30
  ------------------------------------------------------------------------------

     CUMULATIVE VOLUMES      L**3       RATES FOR THIS TIME STEP      L**3/T
     ------------------                 ------------------------

           IN:                                      IN:
           ---                                      ---
             STORAGE =           0.4609               STORAGE =       7.5900E-09
       CONSTANT HEAD =       24090.9121         CONSTANT HEAD =         368.3641

            TOTAL IN =       24091.3730              TOTAL IN =         368.3641

          OUT:                                     OUT:
          ----                                     ----
             STORAGE =       2.4109E-06               STORAGE =       5.9420E-09
       CONSTANT HEAD =       24090.7246         CONSTANT HEAD =         368.3641

           TOTAL OUT =       24090.7246             TOTAL OUT =         368.3641

            IN - OUT =           0.6484              IN - OUT =           0.0000

 PERCENT DISCREPANCY =           0.00     PERCENT DISCREPANCY =           0.00






         TIME SUMMARY AT END OF TIME STEP    1 IN STRESS PERIOD   30
                    SECONDS     MINUTES      HOURS       DAYS        YEARS
                    -----------------------------------------------------------
   TIME STEP LENGTH 1.88352E+05  3139.2      52.320      2.1800     5.96851E-03
 STRESS PERIOD TIME 1.88352E+05  3139.2      52.320      2.1800     5.96851E-03
         TOTAL TIME 5.65056E+06  94176.      1569.6      65.400     0.17906    
1

 Run end date and time (yyyy/mm/dd hh:mm:ss): 2018/07/19 16:28:25
 Elapsed run time:  0.072 Seconds

