                                  MODFLOW-NWT-SWR1 
      U.S. GEOLOGICAL SURVEY MODULAR FINITE-DIFFERENCE GROUNDWATER-FLOW MODEL
                             VERSION 1.1.4 4/01/2018
                    BASED ON MODFLOW-2005 VERSION 1.12.00 02/03/2017

 LIST FILE: pollock_88.list
                         UNIT    2

 OPENING pollock_88.dis
 FILE TYPE:DIS   UNIT   11   STATUS:OLD    
 FORMAT:FORMATTED              ACCESS:SEQUENTIAL          

 OPENING pollock_88.upw
 FILE TYPE:UPW   UNIT   31   STATUS:OLD    
 FORMAT:FORMATTED              ACCESS:SEQUENTIAL          

 OPENING pollock_88.bas
 FILE TYPE:BAS6   UNIT   13   STATUS:OLD    
 FORMAT:FORMATTED              ACCESS:SEQUENTIAL          

 OPENING pollock_88.oc
 FILE TYPE:OC   UNIT   14   STATUS:OLD    
 FORMAT:FORMATTED              ACCESS:SEQUENTIAL          

 OPENING pollock_88.nwt
 FILE TYPE:NWT   UNIT   32   STATUS:OLD    
 FORMAT:FORMATTED              ACCESS:SEQUENTIAL          

 OPENING pollock_88.wel
 FILE TYPE:WEL   UNIT   20   STATUS:OLD    
 FORMAT:FORMATTED              ACCESS:SEQUENTIAL          

 OPENING pollock_88.chd
 FILE TYPE:CHD   UNIT   24   STATUS:OLD    
 FORMAT:FORMATTED              ACCESS:SEQUENTIAL          

 OPENING pollock_88.cbc
 FILE TYPE:DATA(BINARY)   UNIT   53   STATUS:REPLACE
 FORMAT:BINARY                 ACCESS:SEQUENTIAL          

 OPENING pollock_88.hds
 FILE TYPE:DATA(BINARY)   UNIT   51   STATUS:REPLACE
 FORMAT:BINARY                 ACCESS:SEQUENTIAL          

 BAS -- BASIC PACKAGE, VERSION 1.1.4, 4/01/2018 INPUT READ FROM UNIT   13
 
 MODFLOW was compiled using mixed precision
 Precision of REAL variables:           6
 Precision of DOUBLE PRECISION variables:          15

 DISCRETIZATION INPUT DATA READ FROM UNIT   11
 # DIS package for  MODFLOW-NWT, generated by Flopy.
    1 LAYERS        81 ROWS        81 COLUMNS
   15 STRESS PERIOD(S) IN SIMULATION
 MODEL TIME UNIT IS DAYS
 MODEL LENGTH UNIT IS METERS
  Confining bed flag for each layer:
   0

                     DELR =   100.000    

                     DELC =   100.000    



           TOP ELEVATION OF LAYER 1
 READING ON UNIT   11 WITH FORMAT: (81E15.6)           



             MODEL LAYER BOTTOM EL. FOR LAYER   1
 READING ON UNIT   11 WITH FORMAT: (81E15.6)           


 STRESS PERIOD     LENGTH       TIME STEPS     MULTIPLIER FOR DELT    SS FLAG
 ----------------------------------------------------------------------------
        1         500.0000          1                    1.000         TR
        2         500.0000          1                    1.000         TR
        3         500.0000          1                    1.000         TR
        4         500.0000          1                    1.000         TR
        5         500.0000          1                    1.000         TR
        6         500.0000          1                    1.000         TR
        7         500.0000          1                    1.000         TR
        8         500.0000          1                    1.000         TR
        9         500.0000          1                    1.000         TR
       10         500.0000          1                    1.000         TR
       11         500.0000          1                    1.000         TR
       12         500.0000          1                    1.000         TR
       13         500.0000          1                    1.000         TR
       14         500.0000          1                    1.000         TR
       15         500.0000          1                    1.000         TR

 TRANSIENT SIMULATION



 
 # BAS6 package for  MODFLOW-NWT, generated by Flopy.                            
 THE FREE FORMAT OPTION HAS BEEN SELECTED

           BOUNDARY ARRAY =              1 FOR LAYER   1

 AQUIFER HEAD WILL BE SET TO  -999.99     AT ALL NO-FLOW NODES (IBOUND=0).

             INITIAL HEAD =   100.000     FOR LAYER   1
 # OC package for  MODFLOW-NWT, generated by Flopy.

 OUTPUT CONTROL IS SPECIFIED ONLY AT TIME STEPS FOR WHICH OUTPUT IS DESIRED
 COMPACT CELL-BY-CELL BUDGET FILES WILL BE WRITTEN
 AUXILIARY DATA WILL BE SAVED IN CELL-BY-CELL BUDGET FILES
 HEAD PRINT FORMAT CODE IS   0    DRAWDOWN PRINT FORMAT CODE IS   0
 HEADS WILL BE SAVED ON UNIT   51    DRAWDOWNS WILL BE SAVED ON UNIT    0
 # NWT package for  MODFLOW-NWT, generated by Flopy.

 NWT1 -- Newton Solver, VERSION 1.1.4, 4/01/2018
         INPUT READ FROM UNIT 32

 COMPLEX OPTION:
 DEFAULT SOLVER INPUT VALUES REFLECT STRONGLY NONLINEAR MODEL
 ***XMD linear solver will be used***
 
   CONVERGENCE CRITERION OF   0.100000E-01 FOR HEAD SOLUTION
   AND A TOLERANCE OF   0.500000E+03 FOR FLOW SOLUTION AND 
   A MAXIMUM OF  5000 OUTER ITERATIONS. 


   D-B-D REDUCTION FACTOR OF    0.850000E+00 AND 
   A D-B-D INCREASE FACTOR OF    0.100000E-04 AND 
   A D-B-D RELAXATION OF    0.000000E+00 AND 
   A MOMENTUM FACTOR OF    0.100000E+00 .


   BACKTRACKING IS ACTIVE 
   THE MAXIMUM NUMBER OF BACKTRACKS IS    50 AND 
   THE BACKTRACKING TOLERANCE IS    0.110000E+01 AND
   THE BACKTRACKING REDUCTION FACTOR IS    0.700000E+00

 XMD -- LINEAR SOLUTION BY XMD PACKAGE VERSION 1.30
     BY MOTOMU IBARAKI, OHIO STATE UNIVERSITY, COLOMBUS, OH
                 INPUT READ FROM UNIT 32
 ACCELERATION METHOD                    (IACL) =         2
 NODE ORDERING FLAG                   (NORDER) =         0
 LEVEL OF FILL                         (LEVEL) =        15
 MAXIMUM NUMBER OF ORTHOGONALIZATIONS  (NORTH) =         1
 INDEX FOR USING REDUCED SYSTEM      (IREDSYS) =         1
 RESID. REDUCTION CONVERGE CRITERION  (RRCTOL) =  0.000000E+00
 INDEX FOR USING DROP TOLERANCE     (IDROPTOL) =         1
 DROP TOLERANCE VALUE                  (EPSRN) =  0.100000E-02
 CONVERGENCE CRITERIA OF           (HCLOSEXMD) =  0.100000E-03
 MAX. NUMBER OF LINEAR ITERATIONS  (MXITERXMD) =       200


 UPW1 -- UPSTREAM WEIGHTING FLOW PACKAGE, VERSION 1.1.4, 4/01/2018
         INPUT READ FROM UNIT 31

 # UPW package for  MODFLOW-NWT, generated by Flopy.
 CELL-BY-CELL FLOWS WILL BE SAVED ON UNIT   53
 No named parameters

   LAYER FLAGS:
 LAYER       LAYTYP          LAYAVG    CHANI           LAYVKA           LAYWET
 ---------------------------------------------------------------------------
    1             0             0     1.000E+00             0             0

   INTERPRETATION OF LAYER FLAGS:
                        INTERBLOCK     HORIZONTAL    DATA IN
         LAYER TYPE   TRANSMISSIVITY   ANISOTROPY   ARRAY VKA   WETTABILITY
 LAYER   (LAYTYP)        (LAYAVG)      (CHANI)     (LAYVKA)       (LAYWET)
 ---------------------------------------------------------------------------
    1      CONFINED      HARMONIC     1.000E+00    VERTICAL K  NON-WETTABLE

    HYD. COND. ALONG ROWS =   10.0000     FOR LAYER   1

      VERTICAL HYD. COND. =   1.00000     FOR LAYER   1

         SPECIFIC STORAGE =  1.000000E-05 FOR LAYER   1

 WEL -- WELL PACKAGE FOR NWT VERSION 1.1.4,  4/01/2018 INPUT READ FROM UNIT   20
 # WEL package for  MODFLOW-NWT, generated by Flopy.
 No named parameters
 MAXIMUM OF      1 ACTIVE WELLS AT ONE TIME
 No named parameters
  PHIRAMP WILL BE SET TO A DEFAULT VALUE OF 1.0E-5
  WELLS WITH REDUCED PUMPING WILL BE REPORTED TO THE MAIN LISTING FILE


     0 Well parameters

 CHD -- TIME-VARIANT SPECIFIED-HEAD OPTION, VERSION 7, 5/2/2005
 INPUT READ FROM UNIT   24
 # CHD package for  MODFLOW-NWT, generated by Flopy.
 No named parameters
 MAXIMUM OF    236 TIME-VARIANT SPECIFIED-HEAD CELLS AT ONE TIME


     0 TIME-VARIANT SPECIFIED-HEAD PARAMETERS
1
                            STRESS PERIOD NO.    1, LENGTH =   500.0000    
                            -----------------------------------------------

                              NUMBER OF TIME STEPS =     1

                               MULTIPLIER FOR DELT =     1.000

                            INITIAL TIME STEP SIZE =   500.0000    

 WELL NO.  LAYER   ROW   COL   STRESS RATE         
 --------------------------------------------------
      1      1     41     41      0.1600E+06

      1 WELL 

 CHD NO.   LAYER   ROW   COL    START HEAD        END HEAD         
 ------------------------------------------------------------------
      1      1      1     33       100.0           100.0    
      2      1      1     34       100.0           100.0    
      3      1      1     35       100.0           100.0    
      4      1      1     36       100.0           100.0    
      5      1      1     37       100.0           100.0    
      6      1      1     38       100.0           100.0    
      7      1      1     39       100.0           100.0    
      8      1      1     40       100.0           100.0    
      9      1      1     41       100.0           100.0    
     10      1      1     42       100.0           100.0    
     11      1      1     43       100.0           100.0    
     12      1      1     44       100.0           100.0    
     13      1      1     45       100.0           100.0    
     14      1      1     46       100.0           100.0    
     15      1      1     47       100.0           100.0    
     16      1      1     48       100.0           100.0    
     17      1      1     49       100.0           100.0    
     18      1      2     29       100.0           100.0    
     19      1      2     30       100.0           100.0    
     20      1      2     31       100.0           100.0    
     21      1      2     32       100.0           100.0    
     22      1      2     50       100.0           100.0    
     23      1      2     51       100.0           100.0    
     24      1      2     52       100.0           100.0    
     25      1      2     53       100.0           100.0    
     26      1      3     26       100.0           100.0    
     27      1      3     27       100.0           100.0    
     28      1      3     28       100.0           100.0    
     29      1      3     54       100.0           100.0    
     30      1      3     55       100.0           100.0    
     31      1      3     56       100.0           100.0    
     32      1      4     24       100.0           100.0    
     33      1      4     25       100.0           100.0    
     34      1      4     57       100.0           100.0    
     35      1      4     58       100.0           100.0    
     36      1      5     22       100.0           100.0    
     37      1      5     23       100.0           100.0    
     38      1      5     59       100.0           100.0    
     39      1      5     60       100.0           100.0    
     40      1      6     20       100.0           100.0    
     41      1      6     21       100.0           100.0    
     42      1      6     61       100.0           100.0    
     43      1      6     62       100.0           100.0    
     44      1      7     19       100.0           100.0    
     45      1      7     63       100.0           100.0    
     46      1      8     17       100.0           100.0    
     47      1      8     18       100.0           100.0    
     48      1      8     64       100.0           100.0    
     49      1      8     65       100.0           100.0    
     50      1      9     16       100.0           100.0    
     51      1      9     17       100.0           100.0    
     52      1      9     65       100.0           100.0    
     53      1      9     66       100.0           100.0    
     54      1     10     15       100.0           100.0    
     55      1     10     67       100.0           100.0    
     56      1     11     14       100.0           100.0    
     57      1     11     68       100.0           100.0    
     58      1     12     13       100.0           100.0    
     59      1     12     69       100.0           100.0    
     60      1     13     12       100.0           100.0    
     61      1     13     70       100.0           100.0    
     62      1     14     11       100.0           100.0    
     63      1     14     71       100.0           100.0    
     64      1     15     10       100.0           100.0    
     65      1     15     72       100.0           100.0    
     66      1     16      9       100.0           100.0    
     67      1     16     73       100.0           100.0    
     68      1     17      8       100.0           100.0    
     69      1     17      9       100.0           100.0    
     70      1     17     73       100.0           100.0    
     71      1     17     74       100.0           100.0    
     72      1     18      8       100.0           100.0    
     73      1     18     74       100.0           100.0    
     74      1     19      7       100.0           100.0    
     75      1     19     75       100.0           100.0    
     76      1     20      6       100.0           100.0    
     77      1     20     76       100.0           100.0    
     78      1     21      6       100.0           100.0    
     79      1     21     76       100.0           100.0    
     80      1     22      5       100.0           100.0    
     81      1     22     77       100.0           100.0    
     82      1     23      5       100.0           100.0    
     83      1     23     77       100.0           100.0    
     84      1     24      4       100.0           100.0    
     85      1     24     78       100.0           100.0    
     86      1     25      4       100.0           100.0    
     87      1     25     78       100.0           100.0    
     88      1     26      3       100.0           100.0    
     89      1     26     79       100.0           100.0    
     90      1     27      3       100.0           100.0    
     91      1     27     79       100.0           100.0    
     92      1     28      3       100.0           100.0    
     93      1     28     79       100.0           100.0    
     94      1     29      2       100.0           100.0    
     95      1     29     80       100.0           100.0    
     96      1     30      2       100.0           100.0    
     97      1     30     80       100.0           100.0    
     98      1     31      2       100.0           100.0    
     99      1     31     80       100.0           100.0    
    100      1     32      2       100.0           100.0    
    101      1     32     80       100.0           100.0    
    102      1     33      1       100.0           100.0    
    103      1     33     81       100.0           100.0    
    104      1     34      1       100.0           100.0    
    105      1     34     81       100.0           100.0    
    106      1     35      1       100.0           100.0    
    107      1     35     81       100.0           100.0    
    108      1     36      1       100.0           100.0    
    109      1     36     81       100.0           100.0    
    110      1     37      1       100.0           100.0    
    111      1     37     81       100.0           100.0    
    112      1     38      1       100.0           100.0    
    113      1     38     81       100.0           100.0    
    114      1     39      1       100.0           100.0    
    115      1     39     81       100.0           100.0    
    116      1     40      1       100.0           100.0    
    117      1     40     81       100.0           100.0    
    118      1     41      1       100.0           100.0    
    119      1     41     81       100.0           100.0    
    120      1     42      1       100.0           100.0    
    121      1     42     81       100.0           100.0    
    122      1     43      1       100.0           100.0    
    123      1     43     81       100.0           100.0    
    124      1     44      1       100.0           100.0    
    125      1     44     81       100.0           100.0    
    126      1     45      1       100.0           100.0    
    127      1     45     81       100.0           100.0    
    128      1     46      1       100.0           100.0    
    129      1     46     81       100.0           100.0    
    130      1     47      1       100.0           100.0    
    131      1     47     81       100.0           100.0    
    132      1     48      1       100.0           100.0    
    133      1     48     81       100.0           100.0    
    134      1     49      1       100.0           100.0    
    135      1     49     81       100.0           100.0    
    136      1     50      2       100.0           100.0    
    137      1     50     80       100.0           100.0    
    138      1     51      2       100.0           100.0    
    139      1     51     80       100.0           100.0    
    140      1     52      2       100.0           100.0    
    141      1     52     80       100.0           100.0    
    142      1     53      2       100.0           100.0    
    143      1     53     80       100.0           100.0    
    144      1     54      3       100.0           100.0    
    145      1     54     79       100.0           100.0    
    146      1     55      3       100.0           100.0    
    147      1     55     79       100.0           100.0    
    148      1     56      3       100.0           100.0    
    149      1     56     79       100.0           100.0    
    150      1     57      4       100.0           100.0    
    151      1     57     78       100.0           100.0    
    152      1     58      4       100.0           100.0    
    153      1     58     78       100.0           100.0    
    154      1     59      5       100.0           100.0    
    155      1     59     77       100.0           100.0    
    156      1     60      5       100.0           100.0    
    157      1     60     77       100.0           100.0    
    158      1     61      6       100.0           100.0    
    159      1     61     76       100.0           100.0    
    160      1     62      6       100.0           100.0    
    161      1     62     76       100.0           100.0    
    162      1     63      7       100.0           100.0    
    163      1     63     75       100.0           100.0    
    164      1     64      8       100.0           100.0    
    165      1     64     74       100.0           100.0    
    166      1     65      8       100.0           100.0    
    167      1     65      9       100.0           100.0    
    168      1     65     73       100.0           100.0    
    169      1     65     74       100.0           100.0    
    170      1     66      9       100.0           100.0    
    171      1     66     73       100.0           100.0    
    172      1     67     10       100.0           100.0    
    173      1     67     72       100.0           100.0    
    174      1     68     11       100.0           100.0    
    175      1     68     71       100.0           100.0    
    176      1     69     12       100.0           100.0    
    177      1     69     70       100.0           100.0    
    178      1     70     13       100.0           100.0    
    179      1     70     69       100.0           100.0    
    180      1     71     14       100.0           100.0    
    181      1     71     68       100.0           100.0    
    182      1     72     15       100.0           100.0    
    183      1     72     67       100.0           100.0    
    184      1     73     16       100.0           100.0    
    185      1     73     17       100.0           100.0    
    186      1     73     65       100.0           100.0    
    187      1     73     66       100.0           100.0    
    188      1     74     17       100.0           100.0    
    189      1     74     18       100.0           100.0    
    190      1     74     64       100.0           100.0    
    191      1     74     65       100.0           100.0    
    192      1     75     19       100.0           100.0    
    193      1     75     63       100.0           100.0    
    194      1     76     20       100.0           100.0    
    195      1     76     21       100.0           100.0    
    196      1     76     61       100.0           100.0    
    197      1     76     62       100.0           100.0    
    198      1     77     22       100.0           100.0    
    199      1     77     23       100.0           100.0    
    200      1     77     59       100.0           100.0    
    201      1     77     60       100.0           100.0    
    202      1     78     24       100.0           100.0    
    203      1     78     25       100.0           100.0    
    204      1     78     57       100.0           100.0    
    205      1     78     58       100.0           100.0    
    206      1     79     26       100.0           100.0    
    207      1     79     27       100.0           100.0    
    208      1     79     28       100.0           100.0    
    209      1     79     54       100.0           100.0    
    210      1     79     55       100.0           100.0    
    211      1     79     56       100.0           100.0    
    212      1     80     29       100.0           100.0    
    213      1     80     30       100.0           100.0    
    214      1     80     31       100.0           100.0    
    215      1     80     32       100.0           100.0    
    216      1     80     50       100.0           100.0    
    217      1     80     51       100.0           100.0    
    218      1     80     52       100.0           100.0    
    219      1     80     53       100.0           100.0    
    220      1     81     33       100.0           100.0    
    221      1     81     34       100.0           100.0    
    222      1     81     35       100.0           100.0    
    223      1     81     36       100.0           100.0    
    224      1     81     37       100.0           100.0    
    225      1     81     38       100.0           100.0    
    226      1     81     39       100.0           100.0    
    227      1     81     40       100.0           100.0    
    228      1     81     41       100.0           100.0    
    229      1     81     42       100.0           100.0    
    230      1     81     43       100.0           100.0    
    231      1     81     44       100.0           100.0    
    232      1     81     45       100.0           100.0    
    233      1     81     46       100.0           100.0    
    234      1     81     47       100.0           100.0    
    235      1     81     48       100.0           100.0    
    236      1     81     49       100.0           100.0    


    236 TIME-VARIANT SPECIFIED-HEAD CELLS
 
 SOLVING FOR HEAD 
                                                   Max.-Head-Change                        Max.-Flux-Residual
  Residual-Control   Outer-Iter.   Inner-Iter.     Column Row Layer    Max.-Head-Change    Column Row Layer    Max.-Flux-Residual            L2-New               L2-Old           Solver-Max-Delh
          0                 1          10            41   41     1       0.1486195504E+03      41   41    1       0.1600000000E+06      0.1600000000E+06      0.0000000000E+00      0.1486195504E+03
          0                 2           7            41   41     1      -0.1283532323E+02      41   41    1      -0.1600000024E+05      0.1600000024E+05      0.1600000000E+06     -0.1283532323E+02
          0                 3           6            41   41     1      -0.6417723783E+00      41   41    1      -0.7999996066E+03      0.7999996066E+03      0.1600000024E+05     -0.6417723783E+00
          0                 4           5            41   41     1      -0.3208281334E-01      41   41    1      -0.3999196007E+02      0.3999196009E+02      0.7999996066E+03     -0.3208281334E-01
          0                 5           3            41   41     1      -0.1576951594E-02      41   41    1      -0.1998797151E+01      0.1998797204E+01      0.3999196009E+02     -0.1576951594E-02

    ------------------------------------------------
       NWT REQUIRED            5 OUTER ITERATIONS 
       AND A TOTAL OF         31 INNER ITERATIONS.
    ------------------------------------------------

 OUTPUT CONTROL FOR STRESS PERIOD    1   TIME STEP    1
    SAVE HEAD FOR ALL LAYERS
    SAVE BUDGET
 UBDSV1 SAVING "         STORAGE" ON UNIT  53 AT TIME STEP  1, STRESS PERIOD   1
 UBDSV2 SAVING "   CONSTANT HEAD" ON UNIT  53 AT TIME STEP  1, STRESS PERIOD   1
 UBDSV1 SAVING "FLOW RIGHT FACE " ON UNIT  53 AT TIME STEP  1, STRESS PERIOD   1
 UBDSV1 SAVING "FLOW FRONT FACE " ON UNIT  53 AT TIME STEP  1, STRESS PERIOD   1

 HEAD WILL BE SAVED ON UNIT   51 AT END OF TIME STEP    1, STRESS PERIOD    1
1
  VOLUMETRIC BUDGET FOR ENTIRE MODEL AT END OF TIME STEP    1, STRESS PERIOD   1
  ------------------------------------------------------------------------------

     CUMULATIVE VOLUMES      L**3       RATES FOR THIS TIME STEP      L**3/T
     ------------------                 ------------------------

           IN:                                      IN:
           ---                                      ---
             STORAGE =       8.9057E-09               STORAGE =       1.7811E-11
       CONSTANT HEAD =       1.1745E-05         CONSTANT HEAD =       2.3491E-08
               WELLS =    80000000.0000                 WELLS =      160000.0000

            TOTAL IN =    80000000.0000              TOTAL IN =      160000.0000

          OUT:                                     OUT:
          ----                                     ----
             STORAGE =      646411.5625               STORAGE =        1292.8231
       CONSTANT HEAD =    79353752.0000         CONSTANT HEAD =      158707.5000
               WELLS =           0.0000                 WELLS =           0.0000

           TOTAL OUT =    80000160.0000             TOTAL OUT =      160000.3281

            IN - OUT =        -160.0000              IN - OUT =          -0.3281

 PERCENT DISCREPANCY =          -0.00     PERCENT DISCREPANCY =          -0.00






         TIME SUMMARY AT END OF TIME STEP    1 IN STRESS PERIOD    1
                    SECONDS     MINUTES      HOURS       DAYS        YEARS
                    -----------------------------------------------------------
   TIME STEP LENGTH 4.32000E+07 7.20000E+05  12000.      500.00      1.3689    
 STRESS PERIOD TIME 4.32000E+07 7.20000E+05  12000.      500.00      1.3689    
         TOTAL TIME 4.32000E+07 7.20000E+05  12000.      500.00      1.3689    
1
1
                            STRESS PERIOD NO.    2, LENGTH =   500.0000    
                            -----------------------------------------------

                              NUMBER OF TIME STEPS =     1

                               MULTIPLIER FOR DELT =     1.000

                            INITIAL TIME STEP SIZE =   500.0000    

 WELL NO.  LAYER   ROW   COL   STRESS RATE         
 --------------------------------------------------
      1      1     41     41      0.1600E+06

      1 WELL 

 REUSING NON-PARAMETER SPECIFIED-HEAD DATA FROM LAST STRESS PERIOD


    236 TIME-VARIANT SPECIFIED-HEAD CELLS
 
 SOLVING FOR HEAD 
                                                   Max.-Head-Change                        Max.-Flux-Residual
  Residual-Control   Outer-Iter.   Inner-Iter.     Column Row Layer    Max.-Head-Change    Column Row Layer    Max.-Flux-Residual            L2-New               L2-Old           Solver-Max-Delh
          0                 1           5            41   41     1       0.2256334724E+00      41   41    1       0.2602295899E+01      0.2561338070E+02      0.1998797204E+01      0.2256334724E+00
          0                 2           4            41   41     1      -0.1948412692E-01      41   41    1      -0.2602295937E+00      0.2561088752E+01      0.2561338070E+02     -0.1948412692E-01
          0                 3           3            41   41     1      -0.9744489796E-03      41   41    1      -0.1301147311E-01      0.1281343492E+00      0.2561088752E+01     -0.9744489796E-03

    ------------------------------------------------
       NWT REQUIRED            3 OUTER ITERATIONS 
       AND A TOTAL OF         12 INNER ITERATIONS.
    ------------------------------------------------

 OUTPUT CONTROL FOR STRESS PERIOD    2   TIME STEP    1
    SAVE HEAD FOR ALL LAYERS
    SAVE BUDGET
 UBDSV1 SAVING "         STORAGE" ON UNIT  53 AT TIME STEP  1, STRESS PERIOD   2
 UBDSV2 SAVING "   CONSTANT HEAD" ON UNIT  53 AT TIME STEP  1, STRESS PERIOD   2
 UBDSV1 SAVING "FLOW RIGHT FACE " ON UNIT  53 AT TIME STEP  1, STRESS PERIOD   2
 UBDSV1 SAVING "FLOW FRONT FACE " ON UNIT  53 AT TIME STEP  1, STRESS PERIOD   2

 HEAD WILL BE SAVED ON UNIT   51 AT END OF TIME STEP    1, STRESS PERIOD    2
1
  VOLUMETRIC BUDGET FOR ENTIRE MODEL AT END OF TIME STEP    1, STRESS PERIOD   2
  ------------------------------------------------------------------------------

     CUMULATIVE VOLUMES      L**3       RATES FOR THIS TIME STEP      L**3/T
     ------------------                 ------------------------

           IN:                                      IN:
           ---                                      ---
             STORAGE =       1.9125E-08               STORAGE =       2.0438E-11
       CONSTANT HEAD =       2.4421E-05         CONSTANT HEAD =       2.5352E-08
               WELLS =   160000000.0000                 WELLS =      160000.0000

            TOTAL IN =   160000000.0000              TOTAL IN =      160000.0000

          OUT:                                     OUT:
          ----                                     ----
             STORAGE =      650332.4375               STORAGE =           7.8418
       CONSTANT HEAD =   159349984.0000         CONSTANT HEAD =      159992.4844
               WELLS =           0.0000                 WELLS =           0.0000

           TOTAL OUT =   160000320.0000             TOTAL OUT =      160000.3281

            IN - OUT =        -320.0000              IN - OUT =          -0.3281

 PERCENT DISCREPANCY =          -0.00     PERCENT DISCREPANCY =          -0.00






         TIME SUMMARY AT END OF TIME STEP    1 IN STRESS PERIOD    2
                    SECONDS     MINUTES      HOURS       DAYS        YEARS
                    -----------------------------------------------------------
   TIME STEP LENGTH 4.32000E+07 7.20000E+05  12000.      500.00      1.3689    
 STRESS PERIOD TIME 4.32000E+07 7.20000E+05  12000.      500.00      1.3689    
         TOTAL TIME 8.64000E+07 1.44000E+06  24000.      1000.0      2.7379    
1
1
                            STRESS PERIOD NO.    3, LENGTH =   500.0000    
                            -----------------------------------------------

                              NUMBER OF TIME STEPS =     1

                               MULTIPLIER FOR DELT =     1.000

                            INITIAL TIME STEP SIZE =   500.0000    

 WELL NO.  LAYER   ROW   COL   STRESS RATE         
 --------------------------------------------------
      1      1     41     41      0.1600E+06

      1 WELL 

 REUSING NON-PARAMETER SPECIFIED-HEAD DATA FROM LAST STRESS PERIOD


    236 TIME-VARIANT SPECIFIED-HEAD CELLS
 
 SOLVING FOR HEAD 
          0                 1           2            41   41     1       0.1082475973E-02      43   43    1       0.3690829210E-02      0.1288927071E+00      0.1281343492E+00      0.1082475973E-02

    ------------------------------------------------
       NWT REQUIRED            1 OUTER ITERATIONS 
       AND A TOTAL OF          2 INNER ITERATIONS.
    ------------------------------------------------

 OUTPUT CONTROL FOR STRESS PERIOD    3   TIME STEP    1
    SAVE HEAD FOR ALL LAYERS
    SAVE BUDGET
 UBDSV1 SAVING "         STORAGE" ON UNIT  53 AT TIME STEP  1, STRESS PERIOD   3
 UBDSV2 SAVING "   CONSTANT HEAD" ON UNIT  53 AT TIME STEP  1, STRESS PERIOD   3
 UBDSV1 SAVING "FLOW RIGHT FACE " ON UNIT  53 AT TIME STEP  1, STRESS PERIOD   3
 UBDSV1 SAVING "FLOW FRONT FACE " ON UNIT  53 AT TIME STEP  1, STRESS PERIOD   3

 HEAD WILL BE SAVED ON UNIT   51 AT END OF TIME STEP    1, STRESS PERIOD    3
1
  VOLUMETRIC BUDGET FOR ENTIRE MODEL AT END OF TIME STEP    1, STRESS PERIOD   3
  ------------------------------------------------------------------------------

     CUMULATIVE VOLUMES      L**3       RATES FOR THIS TIME STEP      L**3/T
     ------------------                 ------------------------

           IN:                                      IN:
           ---                                      ---
             STORAGE =       2.7801E-08               STORAGE =       1.7352E-11
       CONSTANT HEAD =       3.5882E-05         CONSTANT HEAD =       2.2922E-08
               WELLS =   240000000.0000                 WELLS =      160000.0000

            TOTAL IN =   240000000.0000              TOTAL IN =      160000.0000

          OUT:                                     OUT:
          ----                                     ----
             STORAGE =      650355.8750               STORAGE =       4.6893E-02
       CONSTANT HEAD =   239350336.0000         CONSTANT HEAD =      160000.6875
               WELLS =           0.0000                 WELLS =           0.0000

           TOTAL OUT =   240000688.0000             TOTAL OUT =      160000.7344

            IN - OUT =        -688.0000              IN - OUT =          -0.7344

 PERCENT DISCREPANCY =          -0.00     PERCENT DISCREPANCY =          -0.00






         TIME SUMMARY AT END OF TIME STEP    1 IN STRESS PERIOD    3
                    SECONDS     MINUTES      HOURS       DAYS        YEARS
                    -----------------------------------------------------------
   TIME STEP LENGTH 4.32000E+07 7.20000E+05  12000.      500.00      1.3689    
 STRESS PERIOD TIME 4.32000E+07 7.20000E+05  12000.      500.00      1.3689    
         TOTAL TIME 1.29600E+08 2.16000E+06  36000.      1500.0      4.1068    
1
1
                            STRESS PERIOD NO.    4, LENGTH =   500.0000    
                            -----------------------------------------------

                              NUMBER OF TIME STEPS =     1

                               MULTIPLIER FOR DELT =     1.000

                            INITIAL TIME STEP SIZE =   500.0000    

 WELL NO.  LAYER   ROW   COL   STRESS RATE         
 --------------------------------------------------
      1      1     41     41      0.1600E+06

      1 WELL 

 REUSING NON-PARAMETER SPECIFIED-HEAD DATA FROM LAST STRESS PERIOD


    236 TIME-VARIANT SPECIFIED-HEAD CELLS
 
 SOLVING FOR HEAD 
          0                 1           1            41   40     1      -0.1029091594E-03      40   39    1      -0.3926142817E-03      0.1211864530E-01      0.1288927071E+00     -0.1029091594E-03

    ------------------------------------------------
       NWT REQUIRED            1 OUTER ITERATIONS 
       AND A TOTAL OF          1 INNER ITERATIONS.
    ------------------------------------------------

 OUTPUT CONTROL FOR STRESS PERIOD    4   TIME STEP    1
    SAVE HEAD FOR ALL LAYERS
    SAVE BUDGET
 UBDSV1 SAVING "         STORAGE" ON UNIT  53 AT TIME STEP  1, STRESS PERIOD   4
 UBDSV2 SAVING "   CONSTANT HEAD" ON UNIT  53 AT TIME STEP  1, STRESS PERIOD   4
 UBDSV1 SAVING "FLOW RIGHT FACE " ON UNIT  53 AT TIME STEP  1, STRESS PERIOD   4
 UBDSV1 SAVING "FLOW FRONT FACE " ON UNIT  53 AT TIME STEP  1, STRESS PERIOD   4

 HEAD WILL BE SAVED ON UNIT   51 AT END OF TIME STEP    1, STRESS PERIOD    4
1
  VOLUMETRIC BUDGET FOR ENTIRE MODEL AT END OF TIME STEP    1, STRESS PERIOD   4
  ------------------------------------------------------------------------------

     CUMULATIVE VOLUMES      L**3       RATES FOR THIS TIME STEP      L**3/T
     ------------------                 ------------------------

           IN:                                      IN:
           ---                                      ---
             STORAGE =           2.1241               STORAGE =       4.2482E-03
       CONSTANT HEAD =       4.8097E-05         CONSTANT HEAD =       2.4428E-08
               WELLS =   320000000.0000                 WELLS =      160000.0000

            TOTAL IN =   320000000.0000              TOTAL IN =      160000.0000

          OUT:                                     OUT:
          ----                                     ----
             STORAGE =      650355.8750               STORAGE =       1.0765E-06
       CONSTANT HEAD =   319350336.0000         CONSTANT HEAD =      159999.9844
               WELLS =           0.0000                 WELLS =           0.0000

           TOTAL OUT =   320000704.0000             TOTAL OUT =      159999.9844

            IN - OUT =        -704.0000              IN - OUT =       1.5625E-02

 PERCENT DISCREPANCY =          -0.00     PERCENT DISCREPANCY =           0.00






         TIME SUMMARY AT END OF TIME STEP    1 IN STRESS PERIOD    4
                    SECONDS     MINUTES      HOURS       DAYS        YEARS
                    -----------------------------------------------------------
   TIME STEP LENGTH 4.32000E+07 7.20000E+05  12000.      500.00      1.3689    
 STRESS PERIOD TIME 4.32000E+07 7.20000E+05  12000.      500.00      1.3689    
         TOTAL TIME 1.72800E+08 2.88000E+06  48000.      2000.0      5.4757    
1
1
                            STRESS PERIOD NO.    5, LENGTH =   500.0000    
                            -----------------------------------------------

                              NUMBER OF TIME STEPS =     1

                               MULTIPLIER FOR DELT =     1.000

                            INITIAL TIME STEP SIZE =   500.0000    

 WELL NO.  LAYER   ROW   COL   STRESS RATE         
 --------------------------------------------------
      1      1     41     41      0.1600E+06

      1 WELL 

 REUSING NON-PARAMETER SPECIFIED-HEAD DATA FROM LAST STRESS PERIOD


    236 TIME-VARIANT SPECIFIED-HEAD CELLS
 
 SOLVING FOR HEAD 
          0                 1           1            41   39     1       0.5443963052E-05      47   40    1       0.1279659336E-03      0.2416856316E-02      0.1211864530E-01      0.5443963052E-05

    ------------------------------------------------
       NWT REQUIRED            1 OUTER ITERATIONS 
       AND A TOTAL OF          1 INNER ITERATIONS.
    ------------------------------------------------

 OUTPUT CONTROL FOR STRESS PERIOD    5   TIME STEP    1
    SAVE HEAD FOR ALL LAYERS
    SAVE BUDGET
 UBDSV1 SAVING "         STORAGE" ON UNIT  53 AT TIME STEP  1, STRESS PERIOD   5
 UBDSV2 SAVING "   CONSTANT HEAD" ON UNIT  53 AT TIME STEP  1, STRESS PERIOD   5
 UBDSV1 SAVING "FLOW RIGHT FACE " ON UNIT  53 AT TIME STEP  1, STRESS PERIOD   5
 UBDSV1 SAVING "FLOW FRONT FACE " ON UNIT  53 AT TIME STEP  1, STRESS PERIOD   5

 HEAD WILL BE SAVED ON UNIT   51 AT END OF TIME STEP    1, STRESS PERIOD    5
1
  VOLUMETRIC BUDGET FOR ENTIRE MODEL AT END OF TIME STEP    1, STRESS PERIOD   5
  ------------------------------------------------------------------------------

     CUMULATIVE VOLUMES      L**3       RATES FOR THIS TIME STEP      L**3/T
     ------------------                 ------------------------

           IN:                                      IN:
           ---                                      ---
             STORAGE =           2.1684               STORAGE =       8.8531E-05
       CONSTANT HEAD =       6.0545E-05         CONSTANT HEAD =       2.4897E-08
               WELLS =   400000000.0000                 WELLS =      160000.0000

            TOTAL IN =   400000000.0000              TOTAL IN =      160000.0000

          OUT:                                     OUT:
          ----                                     ----
             STORAGE =      650355.9375               STORAGE =       1.5574E-04
       CONSTANT HEAD =   399350336.0000         CONSTANT HEAD =      159999.9688
               WELLS =           0.0000                 WELLS =           0.0000

           TOTAL OUT =   400000704.0000             TOTAL OUT =      159999.9688

            IN - OUT =        -704.0000              IN - OUT =       3.1250E-02

 PERCENT DISCREPANCY =          -0.00     PERCENT DISCREPANCY =           0.00






         TIME SUMMARY AT END OF TIME STEP    1 IN STRESS PERIOD    5
                    SECONDS     MINUTES      HOURS       DAYS        YEARS
                    -----------------------------------------------------------
   TIME STEP LENGTH 4.32000E+07 7.20000E+05  12000.      500.00      1.3689    
 STRESS PERIOD TIME 4.32000E+07 7.20000E+05  12000.      500.00      1.3689    
         TOTAL TIME 2.16000E+08 3.60000E+06  60000.      2500.0      6.8446    
1
1
                            STRESS PERIOD NO.    6, LENGTH =   500.0000    
                            -----------------------------------------------

                              NUMBER OF TIME STEPS =     1

                               MULTIPLIER FOR DELT =     1.000

                            INITIAL TIME STEP SIZE =   500.0000    

 WELL NO.  LAYER   ROW   COL   STRESS RATE         
 --------------------------------------------------
      1      1     41     41      0.1600E+06

      1 WELL 

 REUSING NON-PARAMETER SPECIFIED-HEAD DATA FROM LAST STRESS PERIOD


    236 TIME-VARIANT SPECIFIED-HEAD CELLS
 
 SOLVING FOR HEAD 
          0                 1           1            40   31     1       0.3460139344E-05      38   23    1       0.3032403765E-04      0.8816756945E-03      0.2416856316E-02      0.3460139344E-05

    ------------------------------------------------
       NWT REQUIRED            1 OUTER ITERATIONS 
       AND A TOTAL OF          1 INNER ITERATIONS.
    ------------------------------------------------

 OUTPUT CONTROL FOR STRESS PERIOD    6   TIME STEP    1
    SAVE HEAD FOR ALL LAYERS
    SAVE BUDGET
 UBDSV1 SAVING "         STORAGE" ON UNIT  53 AT TIME STEP  1, STRESS PERIOD   6
 UBDSV2 SAVING "   CONSTANT HEAD" ON UNIT  53 AT TIME STEP  1, STRESS PERIOD   6
 UBDSV1 SAVING "FLOW RIGHT FACE " ON UNIT  53 AT TIME STEP  1, STRESS PERIOD   6
 UBDSV1 SAVING "FLOW FRONT FACE " ON UNIT  53 AT TIME STEP  1, STRESS PERIOD   6

 HEAD WILL BE SAVED ON UNIT   51 AT END OF TIME STEP    1, STRESS PERIOD    6
1
  VOLUMETRIC BUDGET FOR ENTIRE MODEL AT END OF TIME STEP    1, STRESS PERIOD   6
  ------------------------------------------------------------------------------

     CUMULATIVE VOLUMES      L**3       RATES FOR THIS TIME STEP      L**3/T
     ------------------                 ------------------------

           IN:                                      IN:
           ---                                      ---
             STORAGE =           2.1909               STORAGE =       4.5134E-05
       CONSTANT HEAD =       7.4550E-05         CONSTANT HEAD =       2.8010E-08
               WELLS =   480000000.0000                 WELLS =      160000.0000

            TOTAL IN =   480000000.0000              TOTAL IN =      160000.0000

          OUT:                                     OUT:
          ----                                     ----
             STORAGE =      650356.0625               STORAGE =       2.0596E-04
       CONSTANT HEAD =   479350336.0000         CONSTANT HEAD =      160000.0000
               WELLS =           0.0000                 WELLS =           0.0000

           TOTAL OUT =   480000704.0000             TOTAL OUT =      160000.0000

            IN - OUT =        -704.0000              IN - OUT =           0.0000

 PERCENT DISCREPANCY =          -0.00     PERCENT DISCREPANCY =           0.00






         TIME SUMMARY AT END OF TIME STEP    1 IN STRESS PERIOD    6
                    SECONDS     MINUTES      HOURS       DAYS        YEARS
                    -----------------------------------------------------------
   TIME STEP LENGTH 4.32000E+07 7.20000E+05  12000.      500.00      1.3689    
 STRESS PERIOD TIME 4.32000E+07 7.20000E+05  12000.      500.00      1.3689    
         TOTAL TIME 2.59200E+08 4.32000E+06  72000.      3000.0      8.2136    
1
1
                            STRESS PERIOD NO.    7, LENGTH =   500.0000    
                            -----------------------------------------------

                              NUMBER OF TIME STEPS =     1

                               MULTIPLIER FOR DELT =     1.000

                            INITIAL TIME STEP SIZE =   500.0000    

 WELL NO.  LAYER   ROW   COL   STRESS RATE         
 --------------------------------------------------
      1      1     41     41      0.1600E+06

      1 WELL 

 REUSING NON-PARAMETER SPECIFIED-HEAD DATA FROM LAST STRESS PERIOD


    236 TIME-VARIANT SPECIFIED-HEAD CELLS
 
 SOLVING FOR HEAD 
          0                 1           1            42   47     1       0.5416527621E-06      37   46    1       0.1452304423E-04      0.2531291834E-03      0.8816756945E-03      0.5416527621E-06

    ------------------------------------------------
       NWT REQUIRED            1 OUTER ITERATIONS 
       AND A TOTAL OF          1 INNER ITERATIONS.
    ------------------------------------------------

 OUTPUT CONTROL FOR STRESS PERIOD    7   TIME STEP    1
    SAVE HEAD FOR ALL LAYERS
    SAVE BUDGET
 UBDSV1 SAVING "         STORAGE" ON UNIT  53 AT TIME STEP  1, STRESS PERIOD   7
 UBDSV2 SAVING "   CONSTANT HEAD" ON UNIT  53 AT TIME STEP  1, STRESS PERIOD   7
 UBDSV1 SAVING "FLOW RIGHT FACE " ON UNIT  53 AT TIME STEP  1, STRESS PERIOD   7
 UBDSV1 SAVING "FLOW FRONT FACE " ON UNIT  53 AT TIME STEP  1, STRESS PERIOD   7

 HEAD WILL BE SAVED ON UNIT   51 AT END OF TIME STEP    1, STRESS PERIOD    7
1
  VOLUMETRIC BUDGET FOR ENTIRE MODEL AT END OF TIME STEP    1, STRESS PERIOD   7
  ------------------------------------------------------------------------------

     CUMULATIVE VOLUMES      L**3       RATES FOR THIS TIME STEP      L**3/T
     ------------------                 ------------------------

           IN:                                      IN:
           ---                                      ---
             STORAGE =           2.2451               STORAGE =       1.0844E-04
       CONSTANT HEAD =       8.5656E-05         CONSTANT HEAD =       2.2212E-08
               WELLS =   560000000.0000                 WELLS =      160000.0000

            TOTAL IN =   560000000.0000              TOTAL IN =      160000.0000

          OUT:                                     OUT:
          ----                                     ----
             STORAGE =      650356.1250               STORAGE =       1.0015E-04
       CONSTANT HEAD =   559350336.0000         CONSTANT HEAD =      160000.0000
               WELLS =           0.0000                 WELLS =           0.0000

           TOTAL OUT =   560000704.0000             TOTAL OUT =      160000.0000

            IN - OUT =        -704.0000              IN - OUT =           0.0000

 PERCENT DISCREPANCY =          -0.00     PERCENT DISCREPANCY =           0.00






         TIME SUMMARY AT END OF TIME STEP    1 IN STRESS PERIOD    7
                    SECONDS     MINUTES      HOURS       DAYS        YEARS
                    -----------------------------------------------------------
   TIME STEP LENGTH 4.32000E+07 7.20000E+05  12000.      500.00      1.3689    
 STRESS PERIOD TIME 4.32000E+07 7.20000E+05  12000.      500.00      1.3689    
         TOTAL TIME 3.02400E+08 5.04000E+06  84000.      3500.0      9.5825    
1
1
                            STRESS PERIOD NO.    8, LENGTH =   500.0000    
                            -----------------------------------------------

                              NUMBER OF TIME STEPS =     1

                               MULTIPLIER FOR DELT =     1.000

                            INITIAL TIME STEP SIZE =   500.0000    

 WELL NO.  LAYER   ROW   COL   STRESS RATE         
 --------------------------------------------------
      1      1     41     41      0.1600E+06

      1 WELL 

 REUSING NON-PARAMETER SPECIFIED-HEAD DATA FROM LAST STRESS PERIOD


    236 TIME-VARIANT SPECIFIED-HEAD CELLS
 
 SOLVING FOR HEAD 
          0                 1           1            42   59     1       0.1766652789E-06      33   60    1       0.2316199243E-05      0.6204243171E-04      0.2531291834E-03      0.1766652789E-06

    ------------------------------------------------
       NWT REQUIRED            1 OUTER ITERATIONS 
       AND A TOTAL OF          1 INNER ITERATIONS.
    ------------------------------------------------

 OUTPUT CONTROL FOR STRESS PERIOD    8   TIME STEP    1
    SAVE HEAD FOR ALL LAYERS
    SAVE BUDGET
 UBDSV1 SAVING "         STORAGE" ON UNIT  53 AT TIME STEP  1, STRESS PERIOD   8
 UBDSV2 SAVING "   CONSTANT HEAD" ON UNIT  53 AT TIME STEP  1, STRESS PERIOD   8
 UBDSV1 SAVING "FLOW RIGHT FACE " ON UNIT  53 AT TIME STEP  1, STRESS PERIOD   8
 UBDSV1 SAVING "FLOW FRONT FACE " ON UNIT  53 AT TIME STEP  1, STRESS PERIOD   8

 HEAD WILL BE SAVED ON UNIT   51 AT END OF TIME STEP    1, STRESS PERIOD    8
1
  VOLUMETRIC BUDGET FOR ENTIRE MODEL AT END OF TIME STEP    1, STRESS PERIOD   8
  ------------------------------------------------------------------------------

     CUMULATIVE VOLUMES      L**3       RATES FOR THIS TIME STEP      L**3/T
     ------------------                 ------------------------

           IN:                                      IN:
           ---                                      ---
             STORAGE =           2.2980               STORAGE =       1.0566E-04
       CONSTANT HEAD =       9.8510E-05         CONSTANT HEAD =       2.5707E-08
               WELLS =   640000000.0000                 WELLS =      160000.0000

            TOTAL IN =   640000000.0000              TOTAL IN =      160000.0000

          OUT:                                     OUT:
          ----                                     ----
             STORAGE =      650356.1875               STORAGE =       1.0225E-04
       CONSTANT HEAD =   639350336.0000         CONSTANT HEAD =      160000.0000
               WELLS =           0.0000                 WELLS =           0.0000

           TOTAL OUT =   640000704.0000             TOTAL OUT =      160000.0000

            IN - OUT =        -704.0000              IN - OUT =           0.0000

 PERCENT DISCREPANCY =          -0.00     PERCENT DISCREPANCY =           0.00






         TIME SUMMARY AT END OF TIME STEP    1 IN STRESS PERIOD    8
                    SECONDS     MINUTES      HOURS       DAYS        YEARS
                    -----------------------------------------------------------
   TIME STEP LENGTH 4.32000E+07 7.20000E+05  12000.      500.00      1.3689    
 STRESS PERIOD TIME 4.32000E+07 7.20000E+05  12000.      500.00      1.3689    
         TOTAL TIME 3.45600E+08 5.76000E+06  96000.      4000.0      10.951    
1
1
                            STRESS PERIOD NO.    9, LENGTH =   500.0000    
                            -----------------------------------------------

                              NUMBER OF TIME STEPS =     1

                               MULTIPLIER FOR DELT =     1.000

                            INITIAL TIME STEP SIZE =   500.0000    

 WELL NO.  LAYER   ROW   COL   STRESS RATE         
 --------------------------------------------------
      1      1     41     41      0.1600E+06

      1 WELL 

 REUSING NON-PARAMETER SPECIFIED-HEAD DATA FROM LAST STRESS PERIOD


    236 TIME-VARIANT SPECIFIED-HEAD CELLS
 
 SOLVING FOR HEAD 
          0                 1           1            41   38     1       0.6374039296E-07      47   40    1       0.1463282388E-05      0.2455481665E-04      0.6204243171E-04      0.6374039296E-07

    ------------------------------------------------
       NWT REQUIRED            1 OUTER ITERATIONS 
       AND A TOTAL OF          1 INNER ITERATIONS.
    ------------------------------------------------

 OUTPUT CONTROL FOR STRESS PERIOD    9   TIME STEP    1
    SAVE HEAD FOR ALL LAYERS
    SAVE BUDGET
 UBDSV1 SAVING "         STORAGE" ON UNIT  53 AT TIME STEP  1, STRESS PERIOD   9
 UBDSV2 SAVING "   CONSTANT HEAD" ON UNIT  53 AT TIME STEP  1, STRESS PERIOD   9
 UBDSV1 SAVING "FLOW RIGHT FACE " ON UNIT  53 AT TIME STEP  1, STRESS PERIOD   9
 UBDSV1 SAVING "FLOW FRONT FACE " ON UNIT  53 AT TIME STEP  1, STRESS PERIOD   9

 HEAD WILL BE SAVED ON UNIT   51 AT END OF TIME STEP    1, STRESS PERIOD    9
1
  VOLUMETRIC BUDGET FOR ENTIRE MODEL AT END OF TIME STEP    1, STRESS PERIOD   9
  ------------------------------------------------------------------------------

     CUMULATIVE VOLUMES      L**3       RATES FOR THIS TIME STEP      L**3/T
     ------------------                 ------------------------

           IN:                                      IN:
           ---                                      ---
             STORAGE =           2.3514               STORAGE =       1.0685E-04
       CONSTANT HEAD =       1.1028E-04         CONSTANT HEAD =       2.3547E-08
               WELLS =   720000000.0000                 WELLS =      160000.0000

            TOTAL IN =   720000000.0000              TOTAL IN =      160000.0000

          OUT:                                     OUT:
          ----                                     ----
             STORAGE =      650356.2500               STORAGE =       1.0094E-04
       CONSTANT HEAD =   719350336.0000         CONSTANT HEAD =      160000.0000
               WELLS =           0.0000                 WELLS =           0.0000

           TOTAL OUT =   720000704.0000             TOTAL OUT =      160000.0000

            IN - OUT =        -704.0000              IN - OUT =           0.0000

 PERCENT DISCREPANCY =          -0.00     PERCENT DISCREPANCY =           0.00






         TIME SUMMARY AT END OF TIME STEP    1 IN STRESS PERIOD    9
                    SECONDS     MINUTES      HOURS       DAYS        YEARS
                    -----------------------------------------------------------
   TIME STEP LENGTH 4.32000E+07 7.20000E+05  12000.      500.00      1.3689    
 STRESS PERIOD TIME 4.32000E+07 7.20000E+05  12000.      500.00      1.3689    
         TOTAL TIME 3.88800E+08 6.48000E+06 1.08000E+05  4500.0      12.320    
1
1
                            STRESS PERIOD NO.   10, LENGTH =   500.0000    
                            -----------------------------------------------

                              NUMBER OF TIME STEPS =     1

                               MULTIPLIER FOR DELT =     1.000

                            INITIAL TIME STEP SIZE =   500.0000    

 WELL NO.  LAYER   ROW   COL   STRESS RATE         
 --------------------------------------------------
      1      1     41     41      0.1600E+06

      1 WELL 

 REUSING NON-PARAMETER SPECIFIED-HEAD DATA FROM LAST STRESS PERIOD


    236 TIME-VARIANT SPECIFIED-HEAD CELLS
 
 SOLVING FOR HEAD 
          0                 1           1            53   34     1       0.3397422437E-07      60   25    1       0.4753819667E-06      0.1009322349E-04      0.2455481665E-04      0.3397422437E-07

    ------------------------------------------------
       NWT REQUIRED            1 OUTER ITERATIONS 
       AND A TOTAL OF          1 INNER ITERATIONS.
    ------------------------------------------------

 OUTPUT CONTROL FOR STRESS PERIOD   10   TIME STEP    1
    SAVE HEAD FOR ALL LAYERS
    SAVE BUDGET
 UBDSV1 SAVING "         STORAGE" ON UNIT  53 AT TIME STEP  1, STRESS PERIOD  10
 UBDSV2 SAVING "   CONSTANT HEAD" ON UNIT  53 AT TIME STEP  1, STRESS PERIOD  10
 UBDSV1 SAVING "FLOW RIGHT FACE " ON UNIT  53 AT TIME STEP  1, STRESS PERIOD  10
 UBDSV1 SAVING "FLOW FRONT FACE " ON UNIT  53 AT TIME STEP  1, STRESS PERIOD  10

 HEAD WILL BE SAVED ON UNIT   51 AT END OF TIME STEP    1, STRESS PERIOD   10
1
  VOLUMETRIC BUDGET FOR ENTIRE MODEL AT END OF TIME STEP    1, STRESS PERIOD  10
  ------------------------------------------------------------------------------

     CUMULATIVE VOLUMES      L**3       RATES FOR THIS TIME STEP      L**3/T
     ------------------                 ------------------------

           IN:                                      IN:
           ---                                      ---
             STORAGE =           2.4044               STORAGE =       1.0595E-04
       CONSTANT HEAD =       1.2029E-04         CONSTANT HEAD =       2.0023E-08
               WELLS =   800000000.0000                 WELLS =      160000.0000

            TOTAL IN =   800000000.0000              TOTAL IN =      160000.0000

          OUT:                                     OUT:
          ----                                     ----
             STORAGE =      650356.3125               STORAGE =       1.0177E-04
       CONSTANT HEAD =   799350336.0000         CONSTANT HEAD =      160000.0000
               WELLS =           0.0000                 WELLS =           0.0000

           TOTAL OUT =   800000704.0000             TOTAL OUT =      160000.0000

            IN - OUT =        -704.0000              IN - OUT =           0.0000

 PERCENT DISCREPANCY =          -0.00     PERCENT DISCREPANCY =           0.00






         TIME SUMMARY AT END OF TIME STEP    1 IN STRESS PERIOD   10
                    SECONDS     MINUTES      HOURS       DAYS        YEARS
                    -----------------------------------------------------------
   TIME STEP LENGTH 4.32000E+07 7.20000E+05  12000.      500.00      1.3689    
 STRESS PERIOD TIME 4.32000E+07 7.20000E+05  12000.      500.00      1.3689    
         TOTAL TIME 4.32000E+08 7.20000E+06 1.20000E+05  5000.0      13.689    
1
1
                            STRESS PERIOD NO.   11, LENGTH =   500.0000    
                            -----------------------------------------------

                              NUMBER OF TIME STEPS =     1

                               MULTIPLIER FOR DELT =     1.000

                            INITIAL TIME STEP SIZE =   500.0000    

 WELL NO.  LAYER   ROW   COL   STRESS RATE         
 --------------------------------------------------
      1      1     41     41      0.1600E+06

      1 WELL 

 REUSING NON-PARAMETER SPECIFIED-HEAD DATA FROM LAST STRESS PERIOD


    236 TIME-VARIANT SPECIFIED-HEAD CELLS
 
 SOLVING FOR HEAD 
          0                 1           1            41   44     1       0.7393720135E-08      25   22    1       0.3328896128E-06      0.3921209111E-05      0.1009322349E-04      0.7393720135E-08

    ------------------------------------------------
       NWT REQUIRED            1 OUTER ITERATIONS 
       AND A TOTAL OF          1 INNER ITERATIONS.
    ------------------------------------------------

 OUTPUT CONTROL FOR STRESS PERIOD   11   TIME STEP    1
    SAVE HEAD FOR ALL LAYERS
    SAVE BUDGET
 UBDSV1 SAVING "         STORAGE" ON UNIT  53 AT TIME STEP  1, STRESS PERIOD  11
 UBDSV2 SAVING "   CONSTANT HEAD" ON UNIT  53 AT TIME STEP  1, STRESS PERIOD  11
 UBDSV1 SAVING "FLOW RIGHT FACE " ON UNIT  53 AT TIME STEP  1, STRESS PERIOD  11
 UBDSV1 SAVING "FLOW FRONT FACE " ON UNIT  53 AT TIME STEP  1, STRESS PERIOD  11

 HEAD WILL BE SAVED ON UNIT   51 AT END OF TIME STEP    1, STRESS PERIOD   11
1
  VOLUMETRIC BUDGET FOR ENTIRE MODEL AT END OF TIME STEP    1, STRESS PERIOD  11
  ------------------------------------------------------------------------------

     CUMULATIVE VOLUMES      L**3       RATES FOR THIS TIME STEP      L**3/T
     ------------------                 ------------------------

           IN:                                      IN:
           ---                                      ---
             STORAGE =           2.4582               STORAGE =       1.0764E-04
       CONSTANT HEAD =       1.3345E-04         CONSTANT HEAD =       2.6319E-08
               WELLS =   880000000.0000                 WELLS =      160000.0000

            TOTAL IN =   880000000.0000              TOTAL IN =      160000.0000

          OUT:                                     OUT:
          ----                                     ----
             STORAGE =      650356.3750               STORAGE =       1.0005E-04
       CONSTANT HEAD =   879350336.0000         CONSTANT HEAD =      160000.0000
               WELLS =           0.0000                 WELLS =           0.0000

           TOTAL OUT =   880000704.0000             TOTAL OUT =      160000.0000

            IN - OUT =        -704.0000              IN - OUT =           0.0000

 PERCENT DISCREPANCY =          -0.00     PERCENT DISCREPANCY =           0.00






         TIME SUMMARY AT END OF TIME STEP    1 IN STRESS PERIOD   11
                    SECONDS     MINUTES      HOURS       DAYS        YEARS
                    -----------------------------------------------------------
   TIME STEP LENGTH 4.32000E+07 7.20000E+05  12000.      500.00      1.3689    
 STRESS PERIOD TIME 4.32000E+07 7.20000E+05  12000.      500.00      1.3689    
         TOTAL TIME 4.75200E+08 7.92000E+06 1.32000E+05  5500.0      15.058    
1
1
                            STRESS PERIOD NO.   12, LENGTH =   500.0000    
                            -----------------------------------------------

                              NUMBER OF TIME STEPS =     1

                               MULTIPLIER FOR DELT =     1.000

                            INITIAL TIME STEP SIZE =   500.0000    

 WELL NO.  LAYER   ROW   COL   STRESS RATE         
 --------------------------------------------------
      1      1     41     41      0.1600E+06

      1 WELL 

 REUSING NON-PARAMETER SPECIFIED-HEAD DATA FROM LAST STRESS PERIOD


    236 TIME-VARIANT SPECIFIED-HEAD CELLS
 
 SOLVING FOR HEAD 
          0                 1           1            41   44     1       0.5930101573E-08      30   45    1       0.4423782229E-07      0.1202691814E-05      0.3921209111E-05      0.5930101573E-08

    ------------------------------------------------
       NWT REQUIRED            1 OUTER ITERATIONS 
       AND A TOTAL OF          1 INNER ITERATIONS.
    ------------------------------------------------

 OUTPUT CONTROL FOR STRESS PERIOD   12   TIME STEP    1
    SAVE HEAD FOR ALL LAYERS
    SAVE BUDGET
 UBDSV1 SAVING "         STORAGE" ON UNIT  53 AT TIME STEP  1, STRESS PERIOD  12
 UBDSV2 SAVING "   CONSTANT HEAD" ON UNIT  53 AT TIME STEP  1, STRESS PERIOD  12
 UBDSV1 SAVING "FLOW RIGHT FACE " ON UNIT  53 AT TIME STEP  1, STRESS PERIOD  12
 UBDSV1 SAVING "FLOW FRONT FACE " ON UNIT  53 AT TIME STEP  1, STRESS PERIOD  12

 HEAD WILL BE SAVED ON UNIT   51 AT END OF TIME STEP    1, STRESS PERIOD   12
1
  VOLUMETRIC BUDGET FOR ENTIRE MODEL AT END OF TIME STEP    1, STRESS PERIOD  12
  ------------------------------------------------------------------------------

     CUMULATIVE VOLUMES      L**3       RATES FOR THIS TIME STEP      L**3/T
     ------------------                 ------------------------

           IN:                                      IN:
           ---                                      ---
             STORAGE =           2.5119               STORAGE =       1.0750E-04
       CONSTANT HEAD =       1.4276E-04         CONSTANT HEAD =       1.8616E-08
               WELLS =   960000000.0000                 WELLS =      160000.0000

            TOTAL IN =   960000000.0000              TOTAL IN =      160000.0000

          OUT:                                     OUT:
          ----                                     ----
             STORAGE =      650356.4375               STORAGE =       1.0018E-04
       CONSTANT HEAD =   959350336.0000         CONSTANT HEAD =      160000.0000
               WELLS =           0.0000                 WELLS =           0.0000

           TOTAL OUT =   960000704.0000             TOTAL OUT =      160000.0000

            IN - OUT =        -704.0000              IN - OUT =           0.0000

 PERCENT DISCREPANCY =          -0.00     PERCENT DISCREPANCY =           0.00






         TIME SUMMARY AT END OF TIME STEP    1 IN STRESS PERIOD   12
                    SECONDS     MINUTES      HOURS       DAYS        YEARS
                    -----------------------------------------------------------
   TIME STEP LENGTH 4.32000E+07 7.20000E+05  12000.      500.00      1.3689    
 STRESS PERIOD TIME 4.32000E+07 7.20000E+05  12000.      500.00      1.3689    
         TOTAL TIME 5.18400E+08 8.64000E+06 1.44000E+05  6000.0      16.427    
1
1
                            STRESS PERIOD NO.   13, LENGTH =   500.0000    
                            -----------------------------------------------

                              NUMBER OF TIME STEPS =     1

                               MULTIPLIER FOR DELT =     1.000

                            INITIAL TIME STEP SIZE =   500.0000    

 WELL NO.  LAYER   ROW   COL   STRESS RATE         
 --------------------------------------------------
      1      1     41     41      0.1600E+06

      1 WELL 

 REUSING NON-PARAMETER SPECIFIED-HEAD DATA FROM LAST STRESS PERIOD


    236 TIME-VARIANT SPECIFIED-HEAD CELLS
 
 SOLVING FOR HEAD 
          0                 1           1            40   29     1       0.2908166156E-09      45   68    1      -0.8760252967E-08      0.1701335051E-06      0.1202691814E-05      0.2908166156E-09

    ------------------------------------------------
       NWT REQUIRED            1 OUTER ITERATIONS 
       AND A TOTAL OF          1 INNER ITERATIONS.
    ------------------------------------------------

 OUTPUT CONTROL FOR STRESS PERIOD   13   TIME STEP    1
    SAVE HEAD FOR ALL LAYERS
    SAVE BUDGET
 UBDSV1 SAVING "         STORAGE" ON UNIT  53 AT TIME STEP  1, STRESS PERIOD  13
 UBDSV2 SAVING "   CONSTANT HEAD" ON UNIT  53 AT TIME STEP  1, STRESS PERIOD  13
 UBDSV1 SAVING "FLOW RIGHT FACE " ON UNIT  53 AT TIME STEP  1, STRESS PERIOD  13
 UBDSV1 SAVING "FLOW FRONT FACE " ON UNIT  53 AT TIME STEP  1, STRESS PERIOD  13

 HEAD WILL BE SAVED ON UNIT   51 AT END OF TIME STEP    1, STRESS PERIOD   13
1
  VOLUMETRIC BUDGET FOR ENTIRE MODEL AT END OF TIME STEP    1, STRESS PERIOD  13
  ------------------------------------------------------------------------------

     CUMULATIVE VOLUMES      L**3       RATES FOR THIS TIME STEP      L**3/T
     ------------------                 ------------------------

           IN:                                      IN:
           ---                                      ---
             STORAGE =           2.5657               STORAGE =       1.0750E-04
       CONSTANT HEAD =       1.5508E-04         CONSTANT HEAD =       2.4627E-08
               WELLS =  1040000000.0000                 WELLS =      160000.0000

            TOTAL IN =  1040000000.0000              TOTAL IN =      160000.0000

          OUT:                                     OUT:
          ----                                     ----
             STORAGE =      650356.5000               STORAGE =       1.0018E-04
       CONSTANT HEAD =  1039350336.0000         CONSTANT HEAD =      160000.0000
               WELLS =           0.0000                 WELLS =           0.0000

           TOTAL OUT =  1040000704.0000             TOTAL OUT =      160000.0000

            IN - OUT =        -704.0000              IN - OUT =           0.0000

 PERCENT DISCREPANCY =          -0.00     PERCENT DISCREPANCY =           0.00






         TIME SUMMARY AT END OF TIME STEP    1 IN STRESS PERIOD   13
                    SECONDS     MINUTES      HOURS       DAYS        YEARS
                    -----------------------------------------------------------
   TIME STEP LENGTH 4.32000E+07 7.20000E+05  12000.      500.00      1.3689    
 STRESS PERIOD TIME 4.32000E+07 7.20000E+05  12000.      500.00      1.3689    
         TOTAL TIME 5.61600E+08 9.36000E+06 1.56000E+05  6500.0      17.796    
1
1
                            STRESS PERIOD NO.   14, LENGTH =   500.0000    
                            -----------------------------------------------

                              NUMBER OF TIME STEPS =     1

                               MULTIPLIER FOR DELT =     1.000

                            INITIAL TIME STEP SIZE =   500.0000    

 WELL NO.  LAYER   ROW   COL   STRESS RATE         
 --------------------------------------------------
      1      1     41     41      0.1600E+06

      1 WELL 

 REUSING NON-PARAMETER SPECIFIED-HEAD DATA FROM LAST STRESS PERIOD


    236 TIME-VARIANT SPECIFIED-HEAD CELLS
 
 SOLVING FOR HEAD 
          0                 1           1            42   25     1       0.8864873292E-10      46   23    1       0.1862645149E-08      0.4045369619E-07      0.1701335051E-06      0.8864873292E-10

    ------------------------------------------------
       NWT REQUIRED            1 OUTER ITERATIONS 
       AND A TOTAL OF          1 INNER ITERATIONS.
    ------------------------------------------------

 OUTPUT CONTROL FOR STRESS PERIOD   14   TIME STEP    1
    SAVE HEAD FOR ALL LAYERS
    SAVE BUDGET
 UBDSV1 SAVING "         STORAGE" ON UNIT  53 AT TIME STEP  1, STRESS PERIOD  14
 UBDSV2 SAVING "   CONSTANT HEAD" ON UNIT  53 AT TIME STEP  1, STRESS PERIOD  14
 UBDSV1 SAVING "FLOW RIGHT FACE " ON UNIT  53 AT TIME STEP  1, STRESS PERIOD  14
 UBDSV1 SAVING "FLOW FRONT FACE " ON UNIT  53 AT TIME STEP  1, STRESS PERIOD  14

 HEAD WILL BE SAVED ON UNIT   51 AT END OF TIME STEP    1, STRESS PERIOD   14
1
  VOLUMETRIC BUDGET FOR ENTIRE MODEL AT END OF TIME STEP    1, STRESS PERIOD  14
  ------------------------------------------------------------------------------

     CUMULATIVE VOLUMES      L**3       RATES FOR THIS TIME STEP      L**3/T
     ------------------                 ------------------------

           IN:                                      IN:
           ---                                      ---
             STORAGE =           2.6194               STORAGE =       1.0750E-04
       CONSTANT HEAD =       1.6663E-04         CONSTANT HEAD =       2.3107E-08
               WELLS =  1120000000.0000                 WELLS =      160000.0000

            TOTAL IN =  1120000000.0000              TOTAL IN =      160000.0000

          OUT:                                     OUT:
          ----                                     ----
             STORAGE =      650356.5625               STORAGE =       1.0018E-04
       CONSTANT HEAD =  1119350272.0000         CONSTANT HEAD =      160000.0000
               WELLS =           0.0000                 WELLS =           0.0000

           TOTAL OUT =  1120000640.0000             TOTAL OUT =      160000.0000

            IN - OUT =        -640.0000              IN - OUT =           0.0000

 PERCENT DISCREPANCY =          -0.00     PERCENT DISCREPANCY =           0.00






         TIME SUMMARY AT END OF TIME STEP    1 IN STRESS PERIOD   14
                    SECONDS     MINUTES      HOURS       DAYS        YEARS
                    -----------------------------------------------------------
   TIME STEP LENGTH 4.32000E+07 7.20000E+05  12000.      500.00      1.3689    
 STRESS PERIOD TIME 4.32000E+07 7.20000E+05  12000.      500.00      1.3689    
         TOTAL TIME 6.04800E+08 1.00800E+07 1.68000E+05  7000.0      19.165    
1
1
                            STRESS PERIOD NO.   15, LENGTH =   500.0000    
                            -----------------------------------------------

                              NUMBER OF TIME STEPS =     1

                               MULTIPLIER FOR DELT =     1.000

                            INITIAL TIME STEP SIZE =   500.0000    

 WELL NO.  LAYER   ROW   COL   STRESS RATE         
 --------------------------------------------------
      1      1     41     41      0.1600E+06

      1 WELL 

 REUSING NON-PARAMETER SPECIFIED-HEAD DATA FROM LAST STRESS PERIOD


    236 TIME-VARIANT SPECIFIED-HEAD CELLS
 
 SOLVING FOR HEAD 
          0                 1           1            41   46     1       0.3329603264E-10      39   50    1       0.9313225746E-09      0.1459549843E-07      0.4045369619E-07      0.3329603264E-10

    ------------------------------------------------
       NWT REQUIRED            1 OUTER ITERATIONS 
       AND A TOTAL OF          1 INNER ITERATIONS.
    ------------------------------------------------

 OUTPUT CONTROL FOR STRESS PERIOD   15   TIME STEP    1
    SAVE HEAD FOR ALL LAYERS
    SAVE BUDGET
 UBDSV1 SAVING "         STORAGE" ON UNIT  53 AT TIME STEP  1, STRESS PERIOD  15
 UBDSV2 SAVING "   CONSTANT HEAD" ON UNIT  53 AT TIME STEP  1, STRESS PERIOD  15
 UBDSV1 SAVING "FLOW RIGHT FACE " ON UNIT  53 AT TIME STEP  1, STRESS PERIOD  15
 UBDSV1 SAVING "FLOW FRONT FACE " ON UNIT  53 AT TIME STEP  1, STRESS PERIOD  15

 HEAD WILL BE SAVED ON UNIT   51 AT END OF TIME STEP    1, STRESS PERIOD   15
1
  VOLUMETRIC BUDGET FOR ENTIRE MODEL AT END OF TIME STEP    1, STRESS PERIOD  15
  ------------------------------------------------------------------------------

     CUMULATIVE VOLUMES      L**3       RATES FOR THIS TIME STEP      L**3/T
     ------------------                 ------------------------

           IN:                                      IN:
           ---                                      ---
             STORAGE =           2.6732               STORAGE =       1.0750E-04
       CONSTANT HEAD =       1.7874E-04         CONSTANT HEAD =       2.4215E-08
               WELLS =  1200000000.0000                 WELLS =      160000.0000

            TOTAL IN =  1200000000.0000              TOTAL IN =      160000.0000

          OUT:                                     OUT:
          ----                                     ----
             STORAGE =      650356.6250               STORAGE =       1.0018E-04
       CONSTANT HEAD =  1199350272.0000         CONSTANT HEAD =      160000.0000
               WELLS =           0.0000                 WELLS =           0.0000

           TOTAL OUT =  1200000640.0000             TOTAL OUT =      160000.0000

            IN - OUT =        -640.0000              IN - OUT =           0.0000

 PERCENT DISCREPANCY =          -0.00     PERCENT DISCREPANCY =           0.00






         TIME SUMMARY AT END OF TIME STEP    1 IN STRESS PERIOD   15
                    SECONDS     MINUTES      HOURS       DAYS        YEARS
                    -----------------------------------------------------------
   TIME STEP LENGTH 4.32000E+07 7.20000E+05  12000.      500.00      1.3689    
 STRESS PERIOD TIME 4.32000E+07 7.20000E+05  12000.      500.00      1.3689    
         TOTAL TIME 6.48000E+08 1.08000E+07 1.80000E+05  7500.0      20.534    
1

 Run end date and time (yyyy/mm/dd hh:mm:ss): 2018/07/12 16:54:47
 Elapsed run time:  0.303 Seconds

