                                  MODFLOW-NWT-SWR1 
      U.S. GEOLOGICAL SURVEY MODULAR FINITE-DIFFERENCE GROUNDWATER-FLOW MODEL
                             VERSION 1.1.4 4/01/2018
                    BASED ON MODFLOW-2005 VERSION 1.12.00 02/03/2017

 LIST FILE: pollock_88.list
                         UNIT    2

 OPENING pollock_88.dis
 FILE TYPE:DIS   UNIT   11   STATUS:OLD    
 FORMAT:FORMATTED              ACCESS:SEQUENTIAL          

 OPENING pollock_88.upw
 FILE TYPE:UPW   UNIT   31   STATUS:OLD    
 FORMAT:FORMATTED              ACCESS:SEQUENTIAL          

 OPENING pollock_88.bas
 FILE TYPE:BAS6   UNIT   13   STATUS:OLD    
 FORMAT:FORMATTED              ACCESS:SEQUENTIAL          

 OPENING pollock_88.oc
 FILE TYPE:OC   UNIT   14   STATUS:OLD    
 FORMAT:FORMATTED              ACCESS:SEQUENTIAL          

 OPENING pollock_88.nwt
 FILE TYPE:NWT   UNIT   32   STATUS:OLD    
 FORMAT:FORMATTED              ACCESS:SEQUENTIAL          

 OPENING pollock_88.wel
 FILE TYPE:WEL   UNIT   20   STATUS:OLD    
 FORMAT:FORMATTED              ACCESS:SEQUENTIAL          

 OPENING pollock_88.chd
 FILE TYPE:CHD   UNIT   24   STATUS:OLD    
 FORMAT:FORMATTED              ACCESS:SEQUENTIAL          

 OPENING pollock_88.cbc
 FILE TYPE:DATA(BINARY)   UNIT   53   STATUS:REPLACE
 FORMAT:UNFORMATTED            ACCESS:STREAM              

 OPENING pollock_88.hds
 FILE TYPE:DATA(BINARY)   UNIT   51   STATUS:REPLACE
 FORMAT:UNFORMATTED            ACCESS:STREAM              

 BAS -- BASIC PACKAGE, VERSION 1.1.4, 4/01/2018 INPUT READ FROM UNIT   13

 MODFLOW was compiled using mixed precision
 Precision of REAL variables:           6
 Precision of DOUBLE PRECISION variables:          15

 DISCRETIZATION INPUT DATA READ FROM UNIT   11
 # DIS package for  MODFLOW-NWT, generated by Flopy.
    1 LAYERS        81 ROWS        81 COLUMNS
   15 STRESS PERIOD(S) IN SIMULATION
 MODEL TIME UNIT IS DAYS
 MODEL LENGTH UNIT IS METERS
  Confining bed flag for each layer:
   0

                     DELR =   100.000    

                     DELC =   100.000    



           TOP ELEVATION OF LAYER 1
 READING ON UNIT   11 WITH FORMAT: (81E15.6)           



             MODEL LAYER BOTTOM EL. FOR LAYER   1
 READING ON UNIT   11 WITH FORMAT: (81E15.6)           


 STRESS PERIOD     LENGTH       TIME STEPS     MULTIPLIER FOR DELT    SS FLAG
 ----------------------------------------------------------------------------
        1         500.0000          1                    1.000         SS
        2         500.0000          1                    1.000         SS
        3         500.0000          1                    1.000         SS
        4         500.0000          1                    1.000         SS
        5         500.0000          1                    1.000         SS
        6         500.0000          1                    1.000         SS
        7         500.0000          1                    1.000         SS
        8         500.0000          1                    1.000         SS
        9         500.0000          1                    1.000         SS
       10         500.0000          1                    1.000         SS
       11         500.0000          1                    1.000         SS
       12         500.0000          1                    1.000         SS
       13         500.0000          1                    1.000         SS
       14         500.0000          1                    1.000         SS
       15         500.0000          1                    1.000         SS

 STEADY-STATE SIMULATION




 # BAS6 package for  MODFLOW-NWT, generated by Flopy.                            
 THE FREE FORMAT OPTION HAS BEEN SELECTED

           BOUNDARY ARRAY =              1 FOR LAYER   1

 AQUIFER HEAD WILL BE SET TO  -999.99     AT ALL NO-FLOW NODES (IBOUND=0).

             INITIAL HEAD =   100.000     FOR LAYER   1
 # OC package for  MODFLOW-NWT, generated by Flopy.

 OUTPUT CONTROL IS SPECIFIED ONLY AT TIME STEPS FOR WHICH OUTPUT IS DESIRED
 COMPACT CELL-BY-CELL BUDGET FILES WILL BE WRITTEN
 AUXILIARY DATA WILL BE SAVED IN CELL-BY-CELL BUDGET FILES
 HEAD PRINT FORMAT CODE IS   0    DRAWDOWN PRINT FORMAT CODE IS   0
 HEADS WILL BE SAVED ON UNIT   51    DRAWDOWNS WILL BE SAVED ON UNIT    0
 # NWT package for  MODFLOW-NWT, generated by Flopy.

 NWT1 -- Newton Solver, VERSION 1.1.4, 4/01/2018
         INPUT READ FROM UNIT 32

 COMPLEX OPTION:
 DEFAULT SOLVER INPUT VALUES REFLECT STRONGLY NONLINEAR MODEL
 ***XMD linear solver will be used***

   CONVERGENCE CRITERION OF   0.100000E-01 FOR HEAD SOLUTION
   AND A TOLERANCE OF   0.500000E+03 FOR FLOW SOLUTION AND 
   A MAXIMUM OF  5000 OUTER ITERATIONS. 


   D-B-D REDUCTION FACTOR OF    0.850000E+00 AND 
   A D-B-D INCREASE FACTOR OF    0.100000E-04 AND 
   A D-B-D RELAXATION OF    0.000000E+00 AND 
   A MOMENTUM FACTOR OF    0.100000E+00 .


   BACKTRACKING IS ACTIVE 
   THE MAXIMUM NUMBER OF BACKTRACKS IS    50 AND 
   THE BACKTRACKING TOLERANCE IS    0.110000E+01 AND
   THE BACKTRACKING REDUCTION FACTOR IS    0.700000E+00

 XMD -- LINEAR SOLUTION BY XMD PACKAGE VERSION 1.30
     BY MOTOMU IBARAKI, OHIO STATE UNIVERSITY, COLOMBUS, OH
                 INPUT READ FROM UNIT 32
 ACCELERATION METHOD                    (IACL) =         2
 NODE ORDERING FLAG                   (NORDER) =         0
 LEVEL OF FILL                         (LEVEL) =        15
 MAXIMUM NUMBER OF ORTHOGONALIZATIONS  (NORTH) =         1
 INDEX FOR USING REDUCED SYSTEM      (IREDSYS) =         1
 RESID. REDUCTION CONVERGE CRITERION  (RRCTOL) =  0.000000E+00
 INDEX FOR USING DROP TOLERANCE     (IDROPTOL) =         1
 DROP TOLERANCE VALUE                  (EPSRN) =  0.100000E-02
 CONVERGENCE CRITERIA OF           (HCLOSEXMD) =  0.100000E-03
 MAX. NUMBER OF LINEAR ITERATIONS  (MXITERXMD) =       200


 UPW1 -- UPSTREAM WEIGHTING FLOW PACKAGE, VERSION 1.1.4, 4/01/2018
         INPUT READ FROM UNIT 31

 # UPW package for  MODFLOW-NWT, generated by Flopy.
 CELL-BY-CELL FLOWS WILL BE SAVED ON UNIT   53
 No named parameters

   LAYER FLAGS:
 LAYER       LAYTYP          LAYAVG    CHANI           LAYVKA           LAYWET
 ---------------------------------------------------------------------------
    1             0             0     1.000E+00             0             0

   INTERPRETATION OF LAYER FLAGS:
                        INTERBLOCK     HORIZONTAL    DATA IN
         LAYER TYPE   TRANSMISSIVITY   ANISOTROPY   ARRAY VKA   WETTABILITY
 LAYER   (LAYTYP)        (LAYAVG)      (CHANI)     (LAYVKA)       (LAYWET)
 ---------------------------------------------------------------------------
    1      CONFINED      HARMONIC     1.000E+00    VERTICAL K  NON-WETTABLE

    HYD. COND. ALONG ROWS =   10.0000     FOR LAYER   1

      VERTICAL HYD. COND. =   1.00000     FOR LAYER   1

 WEL -- WELL PACKAGE FOR NWT VERSION 1.1.4,  4/01/2018 INPUT READ FROM UNIT   20
 # WEL package for  MODFLOW-NWT, generated by Flopy.
 No named parameters
 MAXIMUM OF      1 ACTIVE WELLS AT ONE TIME
 No named parameters
  PHIRAMP WILL BE SET TO A DEFAULT VALUE OF 1.0E-5
  WELLS WITH REDUCED PUMPING WILL BE REPORTED TO THE MAIN LISTING FILE


     0 Well parameters

 CHD -- TIME-VARIANT SPECIFIED-HEAD OPTION, VERSION 7, 5/2/2005
 INPUT READ FROM UNIT   24
 # CHD package for  MODFLOW-NWT, generated by Flopy.
 No named parameters
 MAXIMUM OF    236 TIME-VARIANT SPECIFIED-HEAD CELLS AT ONE TIME


     0 TIME-VARIANT SPECIFIED-HEAD PARAMETERS
1
                            STRESS PERIOD NO.    1, LENGTH =   500.0000    
                            -----------------------------------------------

                              NUMBER OF TIME STEPS =     1

                               MULTIPLIER FOR DELT =     1.000

                            INITIAL TIME STEP SIZE =   500.0000    

 WELL NO.  LAYER   ROW   COL   STRESS RATE         
 --------------------------------------------------
      1      1     41     41      0.1600E+06

      1 WELL 

 CHD NO.   LAYER   ROW   COL    START HEAD        END HEAD         
 ------------------------------------------------------------------
      1      1      1     33       100.0           100.0    
      2      1      1     34       100.0           100.0    
      3      1      1     35       100.0           100.0    
      4      1      1     36       100.0           100.0    
      5      1      1     37       100.0           100.0    
      6      1      1     38       100.0           100.0    
      7      1      1     39       100.0           100.0    
      8      1      1     40       100.0           100.0    
      9      1      1     41       100.0           100.0    
     10      1      1     42       100.0           100.0    
     11      1      1     43       100.0           100.0    
     12      1      1     44       100.0           100.0    
     13      1      1     45       100.0           100.0    
     14      1      1     46       100.0           100.0    
     15      1      1     47       100.0           100.0    
     16      1      1     48       100.0           100.0    
     17      1      1     49       100.0           100.0    
     18      1      2     29       100.0           100.0    
     19      1      2     30       100.0           100.0    
     20      1      2     31       100.0           100.0    
     21      1      2     32       100.0           100.0    
     22      1      2     50       100.0           100.0    
     23      1      2     51       100.0           100.0    
     24      1      2     52       100.0           100.0    
     25      1      2     53       100.0           100.0    
     26      1      3     26       100.0           100.0    
     27      1      3     27       100.0           100.0    
     28      1      3     28       100.0           100.0    
     29      1      3     54       100.0           100.0    
     30      1      3     55       100.0           100.0    
     31      1      3     56       100.0           100.0    
     32      1      4     24       100.0           100.0    
     33      1      4     25       100.0           100.0    
     34      1      4     57       100.0           100.0    
     35      1      4     58       100.0           100.0    
     36      1      5     22       100.0           100.0    
     37      1      5     23       100.0           100.0    
     38      1      5     59       100.0           100.0    
     39      1      5     60       100.0           100.0    
     40      1      6     20       100.0           100.0    
     41      1      6     21       100.0           100.0    
     42      1      6     61       100.0           100.0    
     43      1      6     62       100.0           100.0    
     44      1      7     19       100.0           100.0    
     45      1      7     63       100.0           100.0    
     46      1      8     17       100.0           100.0    
     47      1      8     18       100.0           100.0    
     48      1      8     64       100.0           100.0    
     49      1      8     65       100.0           100.0    
     50      1      9     16       100.0           100.0    
     51      1      9     17       100.0           100.0    
     52      1      9     65       100.0           100.0    
     53      1      9     66       100.0           100.0    
     54      1     10     15       100.0           100.0    
     55      1     10     67       100.0           100.0    
     56      1     11     14       100.0           100.0    
     57      1     11     68       100.0           100.0    
     58      1     12     13       100.0           100.0    
     59      1     12     69       100.0           100.0    
     60      1     13     12       100.0           100.0    
     61      1     13     70       100.0           100.0    
     62      1     14     11       100.0           100.0    
     63      1     14     71       100.0           100.0    
     64      1     15     10       100.0           100.0    
     65      1     15     72       100.0           100.0    
     66      1     16      9       100.0           100.0    
     67      1     16     73       100.0           100.0    
     68      1     17      8       100.0           100.0    
     69      1     17      9       100.0           100.0    
     70      1     17     73       100.0           100.0    
     71      1     17     74       100.0           100.0    
     72      1     18      8       100.0           100.0    
     73      1     18     74       100.0           100.0    
     74      1     19      7       100.0           100.0    
     75      1     19     75       100.0           100.0    
     76      1     20      6       100.0           100.0    
     77      1     20     76       100.0           100.0    
     78      1     21      6       100.0           100.0    
     79      1     21     76       100.0           100.0    
     80      1     22      5       100.0           100.0    
     81      1     22     77       100.0           100.0    
     82      1     23      5       100.0           100.0    
     83      1     23     77       100.0           100.0    
     84      1     24      4       100.0           100.0    
     85      1     24     78       100.0           100.0    
     86      1     25      4       100.0           100.0    
     87      1     25     78       100.0           100.0    
     88      1     26      3       100.0           100.0    
     89      1     26     79       100.0           100.0    
     90      1     27      3       100.0           100.0    
     91      1     27     79       100.0           100.0    
     92      1     28      3       100.0           100.0    
     93      1     28     79       100.0           100.0    
     94      1     29      2       100.0           100.0    
     95      1     29     80       100.0           100.0    
     96      1     30      2       100.0           100.0    
     97      1     30     80       100.0           100.0    
     98      1     31      2       100.0           100.0    
     99      1     31     80       100.0           100.0    
    100      1     32      2       100.0           100.0    
    101      1     32     80       100.0           100.0    
    102      1     33      1       100.0           100.0    
    103      1     33     81       100.0           100.0    
    104      1     34      1       100.0           100.0    
    105      1     34     81       100.0           100.0    
    106      1     35      1       100.0           100.0    
    107      1     35     81       100.0           100.0    
    108      1     36      1       100.0           100.0    
    109      1     36     81       100.0           100.0    
    110      1     37      1       100.0           100.0    
    111      1     37     81       100.0           100.0    
    112      1     38      1       100.0           100.0    
    113      1     38     81       100.0           100.0    
    114      1     39      1       100.0           100.0    
    115      1     39     81       100.0           100.0    
    116      1     40      1       100.0           100.0    
    117      1     40     81       100.0           100.0    
    118      1     41      1       100.0           100.0    
    119      1     41     81       100.0           100.0    
    120      1     42      1       100.0           100.0    
    121      1     42     81       100.0           100.0    
    122      1     43      1       100.0           100.0    
    123      1     43     81       100.0           100.0    
    124      1     44      1       100.0           100.0    
    125      1     44     81       100.0           100.0    
    126      1     45      1       100.0           100.0    
    127      1     45     81       100.0           100.0    
    128      1     46      1       100.0           100.0    
    129      1     46     81       100.0           100.0    
    130      1     47      1       100.0           100.0    
    131      1     47     81       100.0           100.0    
    132      1     48      1       100.0           100.0    
    133      1     48     81       100.0           100.0    
    134      1     49      1       100.0           100.0    
    135      1     49     81       100.0           100.0    
    136      1     50      2       100.0           100.0    
    137      1     50     80       100.0           100.0    
    138      1     51      2       100.0           100.0    
    139      1     51     80       100.0           100.0    
    140      1     52      2       100.0           100.0    
    141      1     52     80       100.0           100.0    
    142      1     53      2       100.0           100.0    
    143      1     53     80       100.0           100.0    
    144      1     54      3       100.0           100.0    
    145      1     54     79       100.0           100.0    
    146      1     55      3       100.0           100.0    
    147      1     55     79       100.0           100.0    
    148      1     56      3       100.0           100.0    
    149      1     56     79       100.0           100.0    
    150      1     57      4       100.0           100.0    
    151      1     57     78       100.0           100.0    
    152      1     58      4       100.0           100.0    
    153      1     58     78       100.0           100.0    
    154      1     59      5       100.0           100.0    
    155      1     59     77       100.0           100.0    
    156      1     60      5       100.0           100.0    
    157      1     60     77       100.0           100.0    
    158      1     61      6       100.0           100.0    
    159      1     61     76       100.0           100.0    
    160      1     62      6       100.0           100.0    
    161      1     62     76       100.0           100.0    
    162      1     63      7       100.0           100.0    
    163      1     63     75       100.0           100.0    
    164      1     64      8       100.0           100.0    
    165      1     64     74       100.0           100.0    
    166      1     65      8       100.0           100.0    
    167      1     65      9       100.0           100.0    
    168      1     65     73       100.0           100.0    
    169      1     65     74       100.0           100.0    
    170      1     66      9       100.0           100.0    
    171      1     66     73       100.0           100.0    
    172      1     67     10       100.0           100.0    
    173      1     67     72       100.0           100.0    
    174      1     68     11       100.0           100.0    
    175      1     68     71       100.0           100.0    
    176      1     69     12       100.0           100.0    
    177      1     69     70       100.0           100.0    
    178      1     70     13       100.0           100.0    
    179      1     70     69       100.0           100.0    
    180      1     71     14       100.0           100.0    
    181      1     71     68       100.0           100.0    
    182      1     72     15       100.0           100.0    
    183      1     72     67       100.0           100.0    
    184      1     73     16       100.0           100.0    
    185      1     73     17       100.0           100.0    
    186      1     73     65       100.0           100.0    
    187      1     73     66       100.0           100.0    
    188      1     74     17       100.0           100.0    
    189      1     74     18       100.0           100.0    
    190      1     74     64       100.0           100.0    
    191      1     74     65       100.0           100.0    
    192      1     75     19       100.0           100.0    
    193      1     75     63       100.0           100.0    
    194      1     76     20       100.0           100.0    
    195      1     76     21       100.0           100.0    
    196      1     76     61       100.0           100.0    
    197      1     76     62       100.0           100.0    
    198      1     77     22       100.0           100.0    
    199      1     77     23       100.0           100.0    
    200      1     77     59       100.0           100.0    
    201      1     77     60       100.0           100.0    
    202      1     78     24       100.0           100.0    
    203      1     78     25       100.0           100.0    
    204      1     78     57       100.0           100.0    
    205      1     78     58       100.0           100.0    
    206      1     79     26       100.0           100.0    
    207      1     79     27       100.0           100.0    
    208      1     79     28       100.0           100.0    
    209      1     79     54       100.0           100.0    
    210      1     79     55       100.0           100.0    
    211      1     79     56       100.0           100.0    
    212      1     80     29       100.0           100.0    
    213      1     80     30       100.0           100.0    
    214      1     80     31       100.0           100.0    
    215      1     80     32       100.0           100.0    
    216      1     80     50       100.0           100.0    
    217      1     80     51       100.0           100.0    
    218      1     80     52       100.0           100.0    
    219      1     80     53       100.0           100.0    
    220      1     81     33       100.0           100.0    
    221      1     81     34       100.0           100.0    
    222      1     81     35       100.0           100.0    
    223      1     81     36       100.0           100.0    
    224      1     81     37       100.0           100.0    
    225      1     81     38       100.0           100.0    
    226      1     81     39       100.0           100.0    
    227      1     81     40       100.0           100.0    
    228      1     81     41       100.0           100.0    
    229      1     81     42       100.0           100.0    
    230      1     81     43       100.0           100.0    
    231      1     81     44       100.0           100.0    
    232      1     81     45       100.0           100.0    
    233      1     81     46       100.0           100.0    
    234      1     81     47       100.0           100.0    
    235      1     81     48       100.0           100.0    
    236      1     81     49       100.0           100.0    


    236 TIME-VARIANT SPECIFIED-HEAD CELLS

 SOLVING FOR HEAD 
                                                   Max.-Head-Change                        Max.-Flux-Residual
  Residual-Control   Outer-Iter.   Inner-Iter.     Column Row Layer    Max.-Head-Change    Column Row Layer    Max.-Flux-Residual            L2-New               L2-Old           Solver-Max-Delh
          0                 1          10            41   41     1       0.1488464543E+03      41   41    1       0.1600000000E+06      0.1600000000E+06      0.0000000000E+00      0.1488464543E+03
          0                 2           7            41   41     1      -0.1285491942E+02      41   41    1      -0.1600000024E+05      0.1600000024E+05      0.1600000000E+06     -0.1285491942E+02
          0                 3           6            41   41     1      -0.6427521967E+00      41   41    1      -0.7999996066E+03      0.7999996066E+03      0.1600000024E+05     -0.6427521967E+00
          0                 4           5            41   41     1      -0.3213180483E-01      41   41    1      -0.3999196007E+02      0.3999196009E+02      0.7999996066E+03     -0.3213180483E-01
          0                 5           3            41   41     1      -0.1578992104E-02      41   41    1      -0.1998797151E+01      0.1998797206E+01      0.3999196009E+02     -0.1578992104E-02

    ------------------------------------------------
       NWT REQUIRED            5 OUTER ITERATIONS 
       AND A TOTAL OF         31 INNER ITERATIONS.
    ------------------------------------------------

 OUTPUT CONTROL FOR STRESS PERIOD    1   TIME STEP    1
    SAVE HEAD FOR ALL LAYERS
    SAVE BUDGET
 UBDSV2 SAVING "   CONSTANT HEAD" ON UNIT  53 AT TIME STEP  1, STRESS PERIOD   1
 UBDSV1 SAVING "FLOW RIGHT FACE " ON UNIT  53 AT TIME STEP  1, STRESS PERIOD   1
 UBDSV1 SAVING "FLOW FRONT FACE " ON UNIT  53 AT TIME STEP  1, STRESS PERIOD   1

 HEAD WILL BE SAVED ON UNIT   51 AT END OF TIME STEP    1, STRESS PERIOD    1
1
  VOLUMETRIC BUDGET FOR ENTIRE MODEL AT END OF TIME STEP    1, STRESS PERIOD   1
  ------------------------------------------------------------------------------

     CUMULATIVE VOLUMES      L**3       RATES FOR THIS TIME STEP      L**3/T
     ------------------                 ------------------------

           IN:                                      IN:
           ---                                      ---
             STORAGE =           0.0000               STORAGE =           0.0000
       CONSTANT HEAD =           0.0000         CONSTANT HEAD =           0.0000
               WELLS =    80000000.0000                 WELLS =      160000.0000

            TOTAL IN =    80000000.0000              TOTAL IN =      160000.0000

          OUT:                                     OUT:
          ----                                     ----
             STORAGE =           0.0000               STORAGE =           0.0000
       CONSTANT HEAD =    80000168.0000         CONSTANT HEAD =      160000.3281
               WELLS =           0.0000                 WELLS =           0.0000

           TOTAL OUT =    80000168.0000             TOTAL OUT =      160000.3281

            IN - OUT =        -168.0000              IN - OUT =          -0.3281

 PERCENT DISCREPANCY =          -0.00     PERCENT DISCREPANCY =          -0.00






         TIME SUMMARY AT END OF TIME STEP    1 IN STRESS PERIOD    1
                    SECONDS     MINUTES      HOURS       DAYS        YEARS
                    -----------------------------------------------------------
   TIME STEP LENGTH 4.32000E+07 7.20000E+05  12000.      500.00      1.3689    
 STRESS PERIOD TIME 4.32000E+07 7.20000E+05  12000.      500.00      1.3689    
         TOTAL TIME 4.32000E+07 7.20000E+05  12000.      500.00      1.3689    
1
1
                            STRESS PERIOD NO.    2, LENGTH =   500.0000    
                            -----------------------------------------------

                              NUMBER OF TIME STEPS =     1

                               MULTIPLIER FOR DELT =     1.000

                            INITIAL TIME STEP SIZE =   500.0000    

 WELL NO.  LAYER   ROW   COL   STRESS RATE         
 --------------------------------------------------
      1      1     41     41      0.1600E+06

      1 WELL 

 REUSING NON-PARAMETER SPECIFIED-HEAD DATA FROM LAST STRESS PERIOD


    236 TIME-VARIANT SPECIFIED-HEAD CELLS

 SOLVING FOR HEAD 
          0                 1           1            41   41     1      -0.8464577433E-04      41   41    1      -0.9987984272E-01      0.1000351353E+00      0.1998797206E+01     -0.8464577433E-04

    ------------------------------------------------
       NWT REQUIRED            1 OUTER ITERATIONS 
       AND A TOTAL OF          1 INNER ITERATIONS.
    ------------------------------------------------

 OUTPUT CONTROL FOR STRESS PERIOD    2   TIME STEP    1
    SAVE HEAD FOR ALL LAYERS
    SAVE BUDGET
 UBDSV2 SAVING "   CONSTANT HEAD" ON UNIT  53 AT TIME STEP  1, STRESS PERIOD   2
 UBDSV1 SAVING "FLOW RIGHT FACE " ON UNIT  53 AT TIME STEP  1, STRESS PERIOD   2
 UBDSV1 SAVING "FLOW FRONT FACE " ON UNIT  53 AT TIME STEP  1, STRESS PERIOD   2

 HEAD WILL BE SAVED ON UNIT   51 AT END OF TIME STEP    1, STRESS PERIOD    2
1
  VOLUMETRIC BUDGET FOR ENTIRE MODEL AT END OF TIME STEP    1, STRESS PERIOD   2
  ------------------------------------------------------------------------------

     CUMULATIVE VOLUMES      L**3       RATES FOR THIS TIME STEP      L**3/T
     ------------------                 ------------------------

           IN:                                      IN:
           ---                                      ---
             STORAGE =           0.0000               STORAGE =           0.0000
       CONSTANT HEAD =           0.0000         CONSTANT HEAD =           0.0000
               WELLS =   160000000.0000                 WELLS =      160000.0000

            TOTAL IN =   160000000.0000              TOTAL IN =      160000.0000

          OUT:                                     OUT:
          ----                                     ----
             STORAGE =           0.0000               STORAGE =           0.0000
       CONSTANT HEAD =   160000288.0000         CONSTANT HEAD =      160000.2500
               WELLS =           0.0000                 WELLS =           0.0000

           TOTAL OUT =   160000288.0000             TOTAL OUT =      160000.2500

            IN - OUT =        -288.0000              IN - OUT =          -0.2500

 PERCENT DISCREPANCY =          -0.00     PERCENT DISCREPANCY =          -0.00






         TIME SUMMARY AT END OF TIME STEP    1 IN STRESS PERIOD    2
                    SECONDS     MINUTES      HOURS       DAYS        YEARS
                    -----------------------------------------------------------
   TIME STEP LENGTH 4.32000E+07 7.20000E+05  12000.      500.00      1.3689    
 STRESS PERIOD TIME 4.32000E+07 7.20000E+05  12000.      500.00      1.3689    
         TOTAL TIME 8.64000E+07 1.44000E+06  24000.      1000.0      2.7379    
1
1
                            STRESS PERIOD NO.    3, LENGTH =   500.0000    
                            -----------------------------------------------

                              NUMBER OF TIME STEPS =     1

                               MULTIPLIER FOR DELT =     1.000

                            INITIAL TIME STEP SIZE =   500.0000    

 WELL NO.  LAYER   ROW   COL   STRESS RATE         
 --------------------------------------------------
      1      1     41     41      0.1600E+06

      1 WELL 

 REUSING NON-PARAMETER SPECIFIED-HEAD DATA FROM LAST STRESS PERIOD


    236 TIME-VARIANT SPECIFIED-HEAD CELLS

 SOLVING FOR HEAD 
          0                 1           1            43   48     1      -0.1518718834E-04      41   41    1       0.9987984551E-02      0.1221621836E-01      0.1000351353E+00     -0.1518718834E-04

    ------------------------------------------------
       NWT REQUIRED            1 OUTER ITERATIONS 
       AND A TOTAL OF          1 INNER ITERATIONS.
    ------------------------------------------------

 OUTPUT CONTROL FOR STRESS PERIOD    3   TIME STEP    1
    SAVE HEAD FOR ALL LAYERS
    SAVE BUDGET
 UBDSV2 SAVING "   CONSTANT HEAD" ON UNIT  53 AT TIME STEP  1, STRESS PERIOD   3
 UBDSV1 SAVING "FLOW RIGHT FACE " ON UNIT  53 AT TIME STEP  1, STRESS PERIOD   3
 UBDSV1 SAVING "FLOW FRONT FACE " ON UNIT  53 AT TIME STEP  1, STRESS PERIOD   3

 HEAD WILL BE SAVED ON UNIT   51 AT END OF TIME STEP    1, STRESS PERIOD    3
1
  VOLUMETRIC BUDGET FOR ENTIRE MODEL AT END OF TIME STEP    1, STRESS PERIOD   3
  ------------------------------------------------------------------------------

     CUMULATIVE VOLUMES      L**3       RATES FOR THIS TIME STEP      L**3/T
     ------------------                 ------------------------

           IN:                                      IN:
           ---                                      ---
             STORAGE =           0.0000               STORAGE =           0.0000
       CONSTANT HEAD =           0.0000         CONSTANT HEAD =           0.0000
               WELLS =   240000000.0000                 WELLS =      160000.0000

            TOTAL IN =   240000000.0000              TOTAL IN =      160000.0000

          OUT:                                     OUT:
          ----                                     ----
             STORAGE =           0.0000               STORAGE =           0.0000
       CONSTANT HEAD =   240000352.0000         CONSTANT HEAD =      160000.1406
               WELLS =           0.0000                 WELLS =           0.0000

           TOTAL OUT =   240000352.0000             TOTAL OUT =      160000.1406

            IN - OUT =        -352.0000              IN - OUT =          -0.1406

 PERCENT DISCREPANCY =          -0.00     PERCENT DISCREPANCY =          -0.00






         TIME SUMMARY AT END OF TIME STEP    1 IN STRESS PERIOD    3
                    SECONDS     MINUTES      HOURS       DAYS        YEARS
                    -----------------------------------------------------------
   TIME STEP LENGTH 4.32000E+07 7.20000E+05  12000.      500.00      1.3689    
 STRESS PERIOD TIME 4.32000E+07 7.20000E+05  12000.      500.00      1.3689    
         TOTAL TIME 1.29600E+08 2.16000E+06  36000.      1500.0      4.1068    
1
1
                            STRESS PERIOD NO.    4, LENGTH =   500.0000    
                            -----------------------------------------------

                              NUMBER OF TIME STEPS =     1

                               MULTIPLIER FOR DELT =     1.000

                            INITIAL TIME STEP SIZE =   500.0000    

 WELL NO.  LAYER   ROW   COL   STRESS RATE         
 --------------------------------------------------
      1      1     41     41      0.1600E+06

      1 WELL 

 REUSING NON-PARAMETER SPECIFIED-HEAD DATA FROM LAST STRESS PERIOD


    236 TIME-VARIANT SPECIFIED-HEAD CELLS

 SOLVING FOR HEAD 
          0                 1           1            41   41     1      -0.1706370653E-04      41   41    1      -0.9987981757E-03      0.3469989009E-02      0.1221621836E-01     -0.1706370653E-04

    ------------------------------------------------
       NWT REQUIRED            1 OUTER ITERATIONS 
       AND A TOTAL OF          1 INNER ITERATIONS.
    ------------------------------------------------

 OUTPUT CONTROL FOR STRESS PERIOD    4   TIME STEP    1
    SAVE HEAD FOR ALL LAYERS
    SAVE BUDGET
 UBDSV2 SAVING "   CONSTANT HEAD" ON UNIT  53 AT TIME STEP  1, STRESS PERIOD   4
 UBDSV1 SAVING "FLOW RIGHT FACE " ON UNIT  53 AT TIME STEP  1, STRESS PERIOD   4
 UBDSV1 SAVING "FLOW FRONT FACE " ON UNIT  53 AT TIME STEP  1, STRESS PERIOD   4

 HEAD WILL BE SAVED ON UNIT   51 AT END OF TIME STEP    1, STRESS PERIOD    4
1
  VOLUMETRIC BUDGET FOR ENTIRE MODEL AT END OF TIME STEP    1, STRESS PERIOD   4
  ------------------------------------------------------------------------------

     CUMULATIVE VOLUMES      L**3       RATES FOR THIS TIME STEP      L**3/T
     ------------------                 ------------------------

           IN:                                      IN:
           ---                                      ---
             STORAGE =           0.0000               STORAGE =           0.0000
       CONSTANT HEAD =           0.0000         CONSTANT HEAD =           0.0000
               WELLS =   320000000.0000                 WELLS =      160000.0000

            TOTAL IN =   320000000.0000              TOTAL IN =      160000.0000

          OUT:                                     OUT:
          ----                                     ----
             STORAGE =           0.0000               STORAGE =           0.0000
       CONSTANT HEAD =   320000352.0000         CONSTANT HEAD =      160000.0000
               WELLS =           0.0000                 WELLS =           0.0000

           TOTAL OUT =   320000352.0000             TOTAL OUT =      160000.0000

            IN - OUT =        -352.0000              IN - OUT =           0.0000

 PERCENT DISCREPANCY =          -0.00     PERCENT DISCREPANCY =           0.00






         TIME SUMMARY AT END OF TIME STEP    1 IN STRESS PERIOD    4
                    SECONDS     MINUTES      HOURS       DAYS        YEARS
                    -----------------------------------------------------------
   TIME STEP LENGTH 4.32000E+07 7.20000E+05  12000.      500.00      1.3689    
 STRESS PERIOD TIME 4.32000E+07 7.20000E+05  12000.      500.00      1.3689    
         TOTAL TIME 1.72800E+08 2.88000E+06  48000.      2000.0      5.4757    
1
1
                            STRESS PERIOD NO.    5, LENGTH =   500.0000    
                            -----------------------------------------------

                              NUMBER OF TIME STEPS =     1

                               MULTIPLIER FOR DELT =     1.000

                            INITIAL TIME STEP SIZE =   500.0000    

 WELL NO.  LAYER   ROW   COL   STRESS RATE         
 --------------------------------------------------
      1      1     41     41      0.1600E+06

      1 WELL 

 REUSING NON-PARAMETER SPECIFIED-HEAD DATA FROM LAST STRESS PERIOD


    236 TIME-VARIANT SPECIFIED-HEAD CELLS

 SOLVING FOR HEAD 
          0                 1           1            43   54     1      -0.5252531999E-06      41   41    1       0.9987980593E-04      0.5147975822E-03      0.3469989009E-02     -0.5252531999E-06

    ------------------------------------------------
       NWT REQUIRED            1 OUTER ITERATIONS 
       AND A TOTAL OF          1 INNER ITERATIONS.
    ------------------------------------------------

 OUTPUT CONTROL FOR STRESS PERIOD    5   TIME STEP    1
    SAVE HEAD FOR ALL LAYERS
    SAVE BUDGET
 UBDSV2 SAVING "   CONSTANT HEAD" ON UNIT  53 AT TIME STEP  1, STRESS PERIOD   5
 UBDSV1 SAVING "FLOW RIGHT FACE " ON UNIT  53 AT TIME STEP  1, STRESS PERIOD   5
 UBDSV1 SAVING "FLOW FRONT FACE " ON UNIT  53 AT TIME STEP  1, STRESS PERIOD   5

 HEAD WILL BE SAVED ON UNIT   51 AT END OF TIME STEP    1, STRESS PERIOD    5
1
  VOLUMETRIC BUDGET FOR ENTIRE MODEL AT END OF TIME STEP    1, STRESS PERIOD   5
  ------------------------------------------------------------------------------

     CUMULATIVE VOLUMES      L**3       RATES FOR THIS TIME STEP      L**3/T
     ------------------                 ------------------------

           IN:                                      IN:
           ---                                      ---
             STORAGE =           0.0000               STORAGE =           0.0000
       CONSTANT HEAD =           0.0000         CONSTANT HEAD =           0.0000
               WELLS =   400000000.0000                 WELLS =      160000.0000

            TOTAL IN =   400000000.0000              TOTAL IN =      160000.0000

          OUT:                                     OUT:
          ----                                     ----
             STORAGE =           0.0000               STORAGE =           0.0000
       CONSTANT HEAD =   400000352.0000         CONSTANT HEAD =      160000.0000
               WELLS =           0.0000                 WELLS =           0.0000

           TOTAL OUT =   400000352.0000             TOTAL OUT =      160000.0000

            IN - OUT =        -352.0000              IN - OUT =           0.0000

 PERCENT DISCREPANCY =          -0.00     PERCENT DISCREPANCY =           0.00






         TIME SUMMARY AT END OF TIME STEP    1 IN STRESS PERIOD    5
                    SECONDS     MINUTES      HOURS       DAYS        YEARS
                    -----------------------------------------------------------
   TIME STEP LENGTH 4.32000E+07 7.20000E+05  12000.      500.00      1.3689    
 STRESS PERIOD TIME 4.32000E+07 7.20000E+05  12000.      500.00      1.3689    
         TOTAL TIME 2.16000E+08 3.60000E+06  60000.      2500.0      6.8446    
1
1
                            STRESS PERIOD NO.    6, LENGTH =   500.0000    
                            -----------------------------------------------

                              NUMBER OF TIME STEPS =     1

                               MULTIPLIER FOR DELT =     1.000

                            INITIAL TIME STEP SIZE =   500.0000    

 WELL NO.  LAYER   ROW   COL   STRESS RATE         
 --------------------------------------------------
      1      1     41     41      0.1600E+06

      1 WELL 

 REUSING NON-PARAMETER SPECIFIED-HEAD DATA FROM LAST STRESS PERIOD


    236 TIME-VARIANT SPECIFIED-HEAD CELLS

 SOLVING FOR HEAD 
          0                 1           1            41   41     1      -0.8528148169E-06      41   41    1      -0.9987968951E-05      0.1692714396E-03      0.5147975822E-03     -0.8528148169E-06

    ------------------------------------------------
       NWT REQUIRED            1 OUTER ITERATIONS 
       AND A TOTAL OF          1 INNER ITERATIONS.
    ------------------------------------------------

 OUTPUT CONTROL FOR STRESS PERIOD    6   TIME STEP    1
    SAVE HEAD FOR ALL LAYERS
    SAVE BUDGET
 UBDSV2 SAVING "   CONSTANT HEAD" ON UNIT  53 AT TIME STEP  1, STRESS PERIOD   6
 UBDSV1 SAVING "FLOW RIGHT FACE " ON UNIT  53 AT TIME STEP  1, STRESS PERIOD   6
 UBDSV1 SAVING "FLOW FRONT FACE " ON UNIT  53 AT TIME STEP  1, STRESS PERIOD   6

 HEAD WILL BE SAVED ON UNIT   51 AT END OF TIME STEP    1, STRESS PERIOD    6
1
  VOLUMETRIC BUDGET FOR ENTIRE MODEL AT END OF TIME STEP    1, STRESS PERIOD   6
  ------------------------------------------------------------------------------

     CUMULATIVE VOLUMES      L**3       RATES FOR THIS TIME STEP      L**3/T
     ------------------                 ------------------------

           IN:                                      IN:
           ---                                      ---
             STORAGE =           0.0000               STORAGE =           0.0000
       CONSTANT HEAD =           0.0000         CONSTANT HEAD =           0.0000
               WELLS =   480000000.0000                 WELLS =      160000.0000

            TOTAL IN =   480000000.0000              TOTAL IN =      160000.0000

          OUT:                                     OUT:
          ----                                     ----
             STORAGE =           0.0000               STORAGE =           0.0000
       CONSTANT HEAD =   480000352.0000         CONSTANT HEAD =      160000.0000
               WELLS =           0.0000                 WELLS =           0.0000

           TOTAL OUT =   480000352.0000             TOTAL OUT =      160000.0000

            IN - OUT =        -352.0000              IN - OUT =           0.0000

 PERCENT DISCREPANCY =          -0.00     PERCENT DISCREPANCY =           0.00






         TIME SUMMARY AT END OF TIME STEP    1 IN STRESS PERIOD    6
                    SECONDS     MINUTES      HOURS       DAYS        YEARS
                    -----------------------------------------------------------
   TIME STEP LENGTH 4.32000E+07 7.20000E+05  12000.      500.00      1.3689    
 STRESS PERIOD TIME 4.32000E+07 7.20000E+05  12000.      500.00      1.3689    
         TOTAL TIME 2.59200E+08 4.32000E+06  72000.      3000.0      8.2136    
1
1
                            STRESS PERIOD NO.    7, LENGTH =   500.0000    
                            -----------------------------------------------

                              NUMBER OF TIME STEPS =     1

                               MULTIPLIER FOR DELT =     1.000

                            INITIAL TIME STEP SIZE =   500.0000    

 WELL NO.  LAYER   ROW   COL   STRESS RATE         
 --------------------------------------------------
      1      1     41     41      0.1600E+06

      1 WELL 

 REUSING NON-PARAMETER SPECIFIED-HEAD DATA FROM LAST STRESS PERIOD


    236 TIME-VARIANT SPECIFIED-HEAD CELLS

 SOLVING FOR HEAD 
          0                 1           1            38   25     1      -0.4215466879E-07      41   40    1      -0.3227498382E-05      0.3798816317E-04      0.1692714396E-03     -0.4215466879E-07

    ------------------------------------------------
       NWT REQUIRED            1 OUTER ITERATIONS 
       AND A TOTAL OF          1 INNER ITERATIONS.
    ------------------------------------------------

 OUTPUT CONTROL FOR STRESS PERIOD    7   TIME STEP    1
    SAVE HEAD FOR ALL LAYERS
    SAVE BUDGET
 UBDSV2 SAVING "   CONSTANT HEAD" ON UNIT  53 AT TIME STEP  1, STRESS PERIOD   7
 UBDSV1 SAVING "FLOW RIGHT FACE " ON UNIT  53 AT TIME STEP  1, STRESS PERIOD   7
 UBDSV1 SAVING "FLOW FRONT FACE " ON UNIT  53 AT TIME STEP  1, STRESS PERIOD   7

 HEAD WILL BE SAVED ON UNIT   51 AT END OF TIME STEP    1, STRESS PERIOD    7
1
  VOLUMETRIC BUDGET FOR ENTIRE MODEL AT END OF TIME STEP    1, STRESS PERIOD   7
  ------------------------------------------------------------------------------

     CUMULATIVE VOLUMES      L**3       RATES FOR THIS TIME STEP      L**3/T
     ------------------                 ------------------------

           IN:                                      IN:
           ---                                      ---
             STORAGE =           0.0000               STORAGE =           0.0000
       CONSTANT HEAD =           0.0000         CONSTANT HEAD =           0.0000
               WELLS =   560000000.0000                 WELLS =      160000.0000

            TOTAL IN =   560000000.0000              TOTAL IN =      160000.0000

          OUT:                                     OUT:
          ----                                     ----
             STORAGE =           0.0000               STORAGE =           0.0000
       CONSTANT HEAD =   560000384.0000         CONSTANT HEAD =      160000.0000
               WELLS =           0.0000                 WELLS =           0.0000

           TOTAL OUT =   560000384.0000             TOTAL OUT =      160000.0000

            IN - OUT =        -384.0000              IN - OUT =           0.0000

 PERCENT DISCREPANCY =          -0.00     PERCENT DISCREPANCY =           0.00






         TIME SUMMARY AT END OF TIME STEP    1 IN STRESS PERIOD    7
                    SECONDS     MINUTES      HOURS       DAYS        YEARS
                    -----------------------------------------------------------
   TIME STEP LENGTH 4.32000E+07 7.20000E+05  12000.      500.00      1.3689    
 STRESS PERIOD TIME 4.32000E+07 7.20000E+05  12000.      500.00      1.3689    
         TOTAL TIME 3.02400E+08 5.04000E+06  84000.      3500.0      9.5825    
1
1
                            STRESS PERIOD NO.    8, LENGTH =   500.0000    
                            -----------------------------------------------

                              NUMBER OF TIME STEPS =     1

                               MULTIPLIER FOR DELT =     1.000

                            INITIAL TIME STEP SIZE =   500.0000    

 WELL NO.  LAYER   ROW   COL   STRESS RATE         
 --------------------------------------------------
      1      1     41     41      0.1600E+06

      1 WELL 

 REUSING NON-PARAMETER SPECIFIED-HEAD DATA FROM LAST STRESS PERIOD


    236 TIME-VARIANT SPECIFIED-HEAD CELLS

 SOLVING FOR HEAD 
          0                 1           1            41   42     1      -0.6201962898E-07      39   42    1      -0.7536727935E-06      0.1300712674E-04      0.3798816317E-04     -0.6201962898E-07

    ------------------------------------------------
       NWT REQUIRED            1 OUTER ITERATIONS 
       AND A TOTAL OF          1 INNER ITERATIONS.
    ------------------------------------------------

 OUTPUT CONTROL FOR STRESS PERIOD    8   TIME STEP    1
    SAVE HEAD FOR ALL LAYERS
    SAVE BUDGET
 UBDSV2 SAVING "   CONSTANT HEAD" ON UNIT  53 AT TIME STEP  1, STRESS PERIOD   8
 UBDSV1 SAVING "FLOW RIGHT FACE " ON UNIT  53 AT TIME STEP  1, STRESS PERIOD   8
 UBDSV1 SAVING "FLOW FRONT FACE " ON UNIT  53 AT TIME STEP  1, STRESS PERIOD   8

 HEAD WILL BE SAVED ON UNIT   51 AT END OF TIME STEP    1, STRESS PERIOD    8
1
  VOLUMETRIC BUDGET FOR ENTIRE MODEL AT END OF TIME STEP    1, STRESS PERIOD   8
  ------------------------------------------------------------------------------

     CUMULATIVE VOLUMES      L**3       RATES FOR THIS TIME STEP      L**3/T
     ------------------                 ------------------------

           IN:                                      IN:
           ---                                      ---
             STORAGE =           0.0000               STORAGE =           0.0000
       CONSTANT HEAD =           0.0000         CONSTANT HEAD =           0.0000
               WELLS =   640000000.0000                 WELLS =      160000.0000

            TOTAL IN =   640000000.0000              TOTAL IN =      160000.0000

          OUT:                                     OUT:
          ----                                     ----
             STORAGE =           0.0000               STORAGE =           0.0000
       CONSTANT HEAD =   640000384.0000         CONSTANT HEAD =      160000.0000
               WELLS =           0.0000                 WELLS =           0.0000

           TOTAL OUT =   640000384.0000             TOTAL OUT =      160000.0000

            IN - OUT =        -384.0000              IN - OUT =           0.0000

 PERCENT DISCREPANCY =          -0.00     PERCENT DISCREPANCY =           0.00






         TIME SUMMARY AT END OF TIME STEP    1 IN STRESS PERIOD    8
                    SECONDS     MINUTES      HOURS       DAYS        YEARS
                    -----------------------------------------------------------
   TIME STEP LENGTH 4.32000E+07 7.20000E+05  12000.      500.00      1.3689    
 STRESS PERIOD TIME 4.32000E+07 7.20000E+05  12000.      500.00      1.3689    
         TOTAL TIME 3.45600E+08 5.76000E+06  96000.      4000.0      10.951    
1
1
                            STRESS PERIOD NO.    9, LENGTH =   500.0000    
                            -----------------------------------------------

                              NUMBER OF TIME STEPS =     1

                               MULTIPLIER FOR DELT =     1.000

                            INITIAL TIME STEP SIZE =   500.0000    

 WELL NO.  LAYER   ROW   COL   STRESS RATE         
 --------------------------------------------------
      1      1     41     41      0.1600E+06

      1 WELL 

 REUSING NON-PARAMETER SPECIFIED-HEAD DATA FROM LAST STRESS PERIOD


    236 TIME-VARIANT SPECIFIED-HEAD CELLS

 SOLVING FOR HEAD 
          0                 1           1            38   41     1      -0.2705888850E-08      41   42    1       0.3803288564E-06      0.2780875287E-05      0.1300712674E-04     -0.2705888850E-08

    ------------------------------------------------
       NWT REQUIRED            1 OUTER ITERATIONS 
       AND A TOTAL OF          1 INNER ITERATIONS.
    ------------------------------------------------

 OUTPUT CONTROL FOR STRESS PERIOD    9   TIME STEP    1
    SAVE HEAD FOR ALL LAYERS
    SAVE BUDGET
 UBDSV2 SAVING "   CONSTANT HEAD" ON UNIT  53 AT TIME STEP  1, STRESS PERIOD   9
 UBDSV1 SAVING "FLOW RIGHT FACE " ON UNIT  53 AT TIME STEP  1, STRESS PERIOD   9
 UBDSV1 SAVING "FLOW FRONT FACE " ON UNIT  53 AT TIME STEP  1, STRESS PERIOD   9

 HEAD WILL BE SAVED ON UNIT   51 AT END OF TIME STEP    1, STRESS PERIOD    9
1
  VOLUMETRIC BUDGET FOR ENTIRE MODEL AT END OF TIME STEP    1, STRESS PERIOD   9
  ------------------------------------------------------------------------------

     CUMULATIVE VOLUMES      L**3       RATES FOR THIS TIME STEP      L**3/T
     ------------------                 ------------------------

           IN:                                      IN:
           ---                                      ---
             STORAGE =           0.0000               STORAGE =           0.0000
       CONSTANT HEAD =           0.0000         CONSTANT HEAD =           0.0000
               WELLS =   720000000.0000                 WELLS =      160000.0000

            TOTAL IN =   720000000.0000              TOTAL IN =      160000.0000

          OUT:                                     OUT:
          ----                                     ----
             STORAGE =           0.0000               STORAGE =           0.0000
       CONSTANT HEAD =   720000384.0000         CONSTANT HEAD =      160000.0000
               WELLS =           0.0000                 WELLS =           0.0000

           TOTAL OUT =   720000384.0000             TOTAL OUT =      160000.0000

            IN - OUT =        -384.0000              IN - OUT =           0.0000

 PERCENT DISCREPANCY =          -0.00     PERCENT DISCREPANCY =           0.00






         TIME SUMMARY AT END OF TIME STEP    1 IN STRESS PERIOD    9
                    SECONDS     MINUTES      HOURS       DAYS        YEARS
                    -----------------------------------------------------------
   TIME STEP LENGTH 4.32000E+07 7.20000E+05  12000.      500.00      1.3689    
 STRESS PERIOD TIME 4.32000E+07 7.20000E+05  12000.      500.00      1.3689    
         TOTAL TIME 3.88800E+08 6.48000E+06 1.08000E+05  4500.0      12.320    
1
1
                            STRESS PERIOD NO.   10, LENGTH =   500.0000    
                            -----------------------------------------------

                              NUMBER OF TIME STEPS =     1

                               MULTIPLIER FOR DELT =     1.000

                            INITIAL TIME STEP SIZE =   500.0000    

 WELL NO.  LAYER   ROW   COL   STRESS RATE         
 --------------------------------------------------
      1      1     41     41      0.1600E+06

      1 WELL 

 REUSING NON-PARAMETER SPECIFIED-HEAD DATA FROM LAST STRESS PERIOD


    236 TIME-VARIANT SPECIFIED-HEAD CELLS

 SOLVING FOR HEAD 
          0                 1           1            42   41     1      -0.3218741544E-08      42   45    1      -0.4051253200E-07      0.7139461782E-06      0.2780875287E-05     -0.3218741544E-08

    ------------------------------------------------
       NWT REQUIRED            1 OUTER ITERATIONS 
       AND A TOTAL OF          1 INNER ITERATIONS.
    ------------------------------------------------

 OUTPUT CONTROL FOR STRESS PERIOD   10   TIME STEP    1
    SAVE HEAD FOR ALL LAYERS
    SAVE BUDGET
 UBDSV2 SAVING "   CONSTANT HEAD" ON UNIT  53 AT TIME STEP  1, STRESS PERIOD  10
 UBDSV1 SAVING "FLOW RIGHT FACE " ON UNIT  53 AT TIME STEP  1, STRESS PERIOD  10
 UBDSV1 SAVING "FLOW FRONT FACE " ON UNIT  53 AT TIME STEP  1, STRESS PERIOD  10

 HEAD WILL BE SAVED ON UNIT   51 AT END OF TIME STEP    1, STRESS PERIOD   10
1
  VOLUMETRIC BUDGET FOR ENTIRE MODEL AT END OF TIME STEP    1, STRESS PERIOD  10
  ------------------------------------------------------------------------------

     CUMULATIVE VOLUMES      L**3       RATES FOR THIS TIME STEP      L**3/T
     ------------------                 ------------------------

           IN:                                      IN:
           ---                                      ---
             STORAGE =           0.0000               STORAGE =           0.0000
       CONSTANT HEAD =           0.0000         CONSTANT HEAD =           0.0000
               WELLS =   800000000.0000                 WELLS =      160000.0000

            TOTAL IN =   800000000.0000              TOTAL IN =      160000.0000

          OUT:                                     OUT:
          ----                                     ----
             STORAGE =           0.0000               STORAGE =           0.0000
       CONSTANT HEAD =   800000384.0000         CONSTANT HEAD =      160000.0000
               WELLS =           0.0000                 WELLS =           0.0000

           TOTAL OUT =   800000384.0000             TOTAL OUT =      160000.0000

            IN - OUT =        -384.0000              IN - OUT =           0.0000

 PERCENT DISCREPANCY =          -0.00     PERCENT DISCREPANCY =           0.00






         TIME SUMMARY AT END OF TIME STEP    1 IN STRESS PERIOD   10
                    SECONDS     MINUTES      HOURS       DAYS        YEARS
                    -----------------------------------------------------------
   TIME STEP LENGTH 4.32000E+07 7.20000E+05  12000.      500.00      1.3689    
 STRESS PERIOD TIME 4.32000E+07 7.20000E+05  12000.      500.00      1.3689    
         TOTAL TIME 4.32000E+08 7.20000E+06 1.20000E+05  5000.0      13.689    
1
1
                            STRESS PERIOD NO.   11, LENGTH =   500.0000    
                            -----------------------------------------------

                              NUMBER OF TIME STEPS =     1

                               MULTIPLIER FOR DELT =     1.000

                            INITIAL TIME STEP SIZE =   500.0000    

 WELL NO.  LAYER   ROW   COL   STRESS RATE         
 --------------------------------------------------
      1      1     41     41      0.1600E+06

      1 WELL 

 REUSING NON-PARAMETER SPECIFIED-HEAD DATA FROM LAST STRESS PERIOD


    236 TIME-VARIANT SPECIFIED-HEAD CELLS

 SOLVING FOR HEAD 
          0                 1           1            43   60     1      -0.4123393188E-09      44   59    1      -0.1792795956E-07      0.2471076797E-06      0.7139461782E-06     -0.4123393188E-09

    ------------------------------------------------
       NWT REQUIRED            1 OUTER ITERATIONS 
       AND A TOTAL OF          1 INNER ITERATIONS.
    ------------------------------------------------

 OUTPUT CONTROL FOR STRESS PERIOD   11   TIME STEP    1
    SAVE HEAD FOR ALL LAYERS
    SAVE BUDGET
 UBDSV2 SAVING "   CONSTANT HEAD" ON UNIT  53 AT TIME STEP  1, STRESS PERIOD  11
 UBDSV1 SAVING "FLOW RIGHT FACE " ON UNIT  53 AT TIME STEP  1, STRESS PERIOD  11
 UBDSV1 SAVING "FLOW FRONT FACE " ON UNIT  53 AT TIME STEP  1, STRESS PERIOD  11

 HEAD WILL BE SAVED ON UNIT   51 AT END OF TIME STEP    1, STRESS PERIOD   11
1
  VOLUMETRIC BUDGET FOR ENTIRE MODEL AT END OF TIME STEP    1, STRESS PERIOD  11
  ------------------------------------------------------------------------------

     CUMULATIVE VOLUMES      L**3       RATES FOR THIS TIME STEP      L**3/T
     ------------------                 ------------------------

           IN:                                      IN:
           ---                                      ---
             STORAGE =           0.0000               STORAGE =           0.0000
       CONSTANT HEAD =           0.0000         CONSTANT HEAD =           0.0000
               WELLS =   880000000.0000                 WELLS =      160000.0000

            TOTAL IN =   880000000.0000              TOTAL IN =      160000.0000

          OUT:                                     OUT:
          ----                                     ----
             STORAGE =           0.0000               STORAGE =           0.0000
       CONSTANT HEAD =   880000384.0000         CONSTANT HEAD =      160000.0000
               WELLS =           0.0000                 WELLS =           0.0000

           TOTAL OUT =   880000384.0000             TOTAL OUT =      160000.0000

            IN - OUT =        -384.0000              IN - OUT =           0.0000

 PERCENT DISCREPANCY =          -0.00     PERCENT DISCREPANCY =           0.00






         TIME SUMMARY AT END OF TIME STEP    1 IN STRESS PERIOD   11
                    SECONDS     MINUTES      HOURS       DAYS        YEARS
                    -----------------------------------------------------------
   TIME STEP LENGTH 4.32000E+07 7.20000E+05  12000.      500.00      1.3689    
 STRESS PERIOD TIME 4.32000E+07 7.20000E+05  12000.      500.00      1.3689    
         TOTAL TIME 4.75200E+08 7.92000E+06 1.32000E+05  5500.0      15.058    
1
1
                            STRESS PERIOD NO.   12, LENGTH =   500.0000    
                            -----------------------------------------------

                              NUMBER OF TIME STEPS =     1

                               MULTIPLIER FOR DELT =     1.000

                            INITIAL TIME STEP SIZE =   500.0000    

 WELL NO.  LAYER   ROW   COL   STRESS RATE         
 --------------------------------------------------
      1      1     41     41      0.1600E+06

      1 WELL 

 REUSING NON-PARAMETER SPECIFIED-HEAD DATA FROM LAST STRESS PERIOD


    236 TIME-VARIANT SPECIFIED-HEAD CELLS

 SOLVING FOR HEAD 
          0                 1           1            41   42     1      -0.4216246913E-09      40   41    1      -0.5762558430E-08      0.9058779837E-07      0.2471076797E-06     -0.4216246913E-09

    ------------------------------------------------
       NWT REQUIRED            1 OUTER ITERATIONS 
       AND A TOTAL OF          1 INNER ITERATIONS.
    ------------------------------------------------

 OUTPUT CONTROL FOR STRESS PERIOD   12   TIME STEP    1
    SAVE HEAD FOR ALL LAYERS
    SAVE BUDGET
 UBDSV2 SAVING "   CONSTANT HEAD" ON UNIT  53 AT TIME STEP  1, STRESS PERIOD  12
 UBDSV1 SAVING "FLOW RIGHT FACE " ON UNIT  53 AT TIME STEP  1, STRESS PERIOD  12
 UBDSV1 SAVING "FLOW FRONT FACE " ON UNIT  53 AT TIME STEP  1, STRESS PERIOD  12

 HEAD WILL BE SAVED ON UNIT   51 AT END OF TIME STEP    1, STRESS PERIOD   12
1
  VOLUMETRIC BUDGET FOR ENTIRE MODEL AT END OF TIME STEP    1, STRESS PERIOD  12
  ------------------------------------------------------------------------------

     CUMULATIVE VOLUMES      L**3       RATES FOR THIS TIME STEP      L**3/T
     ------------------                 ------------------------

           IN:                                      IN:
           ---                                      ---
             STORAGE =           0.0000               STORAGE =           0.0000
       CONSTANT HEAD =           0.0000         CONSTANT HEAD =           0.0000
               WELLS =   960000000.0000                 WELLS =      160000.0000

            TOTAL IN =   960000000.0000              TOTAL IN =      160000.0000

          OUT:                                     OUT:
          ----                                     ----
             STORAGE =           0.0000               STORAGE =           0.0000
       CONSTANT HEAD =   960000384.0000         CONSTANT HEAD =      160000.0000
               WELLS =           0.0000                 WELLS =           0.0000

           TOTAL OUT =   960000384.0000             TOTAL OUT =      160000.0000

            IN - OUT =        -384.0000              IN - OUT =           0.0000

 PERCENT DISCREPANCY =          -0.00     PERCENT DISCREPANCY =           0.00






         TIME SUMMARY AT END OF TIME STEP    1 IN STRESS PERIOD   12
                    SECONDS     MINUTES      HOURS       DAYS        YEARS
                    -----------------------------------------------------------
   TIME STEP LENGTH 4.32000E+07 7.20000E+05  12000.      500.00      1.3689    
 STRESS PERIOD TIME 4.32000E+07 7.20000E+05  12000.      500.00      1.3689    
         TOTAL TIME 5.18400E+08 8.64000E+06 1.44000E+05  6000.0      16.427    
1
1
                            STRESS PERIOD NO.   13, LENGTH =   500.0000    
                            -----------------------------------------------

                              NUMBER OF TIME STEPS =     1

                               MULTIPLIER FOR DELT =     1.000

                            INITIAL TIME STEP SIZE =   500.0000    

 WELL NO.  LAYER   ROW   COL   STRESS RATE         
 --------------------------------------------------
      1      1     41     41      0.1600E+06

      1 WELL 

 REUSING NON-PARAMETER SPECIFIED-HEAD DATA FROM LAST STRESS PERIOD


    236 TIME-VARIANT SPECIFIED-HEAD CELLS

 SOLVING FOR HEAD 
          0                 1           1            39   28     1      -0.2588649298E-10      41   28    1      -0.1688022166E-08      0.2245184626E-07      0.9058779837E-07     -0.2588649298E-10

    ------------------------------------------------
       NWT REQUIRED            1 OUTER ITERATIONS 
       AND A TOTAL OF          1 INNER ITERATIONS.
    ------------------------------------------------

 OUTPUT CONTROL FOR STRESS PERIOD   13   TIME STEP    1
    SAVE HEAD FOR ALL LAYERS
    SAVE BUDGET
 UBDSV2 SAVING "   CONSTANT HEAD" ON UNIT  53 AT TIME STEP  1, STRESS PERIOD  13
 UBDSV1 SAVING "FLOW RIGHT FACE " ON UNIT  53 AT TIME STEP  1, STRESS PERIOD  13
 UBDSV1 SAVING "FLOW FRONT FACE " ON UNIT  53 AT TIME STEP  1, STRESS PERIOD  13

 HEAD WILL BE SAVED ON UNIT   51 AT END OF TIME STEP    1, STRESS PERIOD   13
1
  VOLUMETRIC BUDGET FOR ENTIRE MODEL AT END OF TIME STEP    1, STRESS PERIOD  13
  ------------------------------------------------------------------------------

     CUMULATIVE VOLUMES      L**3       RATES FOR THIS TIME STEP      L**3/T
     ------------------                 ------------------------

           IN:                                      IN:
           ---                                      ---
             STORAGE =           0.0000               STORAGE =           0.0000
       CONSTANT HEAD =           0.0000         CONSTANT HEAD =           0.0000
               WELLS =  1040000000.0000                 WELLS =      160000.0000

            TOTAL IN =  1040000000.0000              TOTAL IN =      160000.0000

          OUT:                                     OUT:
          ----                                     ----
             STORAGE =           0.0000               STORAGE =           0.0000
       CONSTANT HEAD =  1040000384.0000         CONSTANT HEAD =      160000.0000
               WELLS =           0.0000                 WELLS =           0.0000

           TOTAL OUT =  1040000384.0000             TOTAL OUT =      160000.0000

            IN - OUT =        -384.0000              IN - OUT =           0.0000

 PERCENT DISCREPANCY =          -0.00     PERCENT DISCREPANCY =           0.00






         TIME SUMMARY AT END OF TIME STEP    1 IN STRESS PERIOD   13
                    SECONDS     MINUTES      HOURS       DAYS        YEARS
                    -----------------------------------------------------------
   TIME STEP LENGTH 4.32000E+07 7.20000E+05  12000.      500.00      1.3689    
 STRESS PERIOD TIME 4.32000E+07 7.20000E+05  12000.      500.00      1.3689    
         TOTAL TIME 5.61600E+08 9.36000E+06 1.56000E+05  6500.0      17.796    
1
1
                            STRESS PERIOD NO.   14, LENGTH =   500.0000    
                            -----------------------------------------------

                              NUMBER OF TIME STEPS =     1

                               MULTIPLIER FOR DELT =     1.000

                            INITIAL TIME STEP SIZE =   500.0000    

 WELL NO.  LAYER   ROW   COL   STRESS RATE         
 --------------------------------------------------
      1      1     41     41      0.1600E+06

      1 WELL 

 REUSING NON-PARAMETER SPECIFIED-HEAD DATA FROM LAST STRESS PERIOD


    236 TIME-VARIANT SPECIFIED-HEAD CELLS

 SOLVING FOR HEAD 
          0                 1           1            43   40     1      -0.2369802136E-10      48   35    1      -0.5820766091E-09      0.9180125057E-08      0.2245184626E-07     -0.2369802136E-10

    ------------------------------------------------
       NWT REQUIRED            1 OUTER ITERATIONS 
       AND A TOTAL OF          1 INNER ITERATIONS.
    ------------------------------------------------

 OUTPUT CONTROL FOR STRESS PERIOD   14   TIME STEP    1
    SAVE HEAD FOR ALL LAYERS
    SAVE BUDGET
 UBDSV2 SAVING "   CONSTANT HEAD" ON UNIT  53 AT TIME STEP  1, STRESS PERIOD  14
 UBDSV1 SAVING "FLOW RIGHT FACE " ON UNIT  53 AT TIME STEP  1, STRESS PERIOD  14
 UBDSV1 SAVING "FLOW FRONT FACE " ON UNIT  53 AT TIME STEP  1, STRESS PERIOD  14

 HEAD WILL BE SAVED ON UNIT   51 AT END OF TIME STEP    1, STRESS PERIOD   14
1
  VOLUMETRIC BUDGET FOR ENTIRE MODEL AT END OF TIME STEP    1, STRESS PERIOD  14
  ------------------------------------------------------------------------------

     CUMULATIVE VOLUMES      L**3       RATES FOR THIS TIME STEP      L**3/T
     ------------------                 ------------------------

           IN:                                      IN:
           ---                                      ---
             STORAGE =           0.0000               STORAGE =           0.0000
       CONSTANT HEAD =           0.0000         CONSTANT HEAD =           0.0000
               WELLS =  1120000000.0000                 WELLS =      160000.0000

            TOTAL IN =  1120000000.0000              TOTAL IN =      160000.0000

          OUT:                                     OUT:
          ----                                     ----
             STORAGE =           0.0000               STORAGE =           0.0000
       CONSTANT HEAD =  1120000384.0000         CONSTANT HEAD =      160000.0000
               WELLS =           0.0000                 WELLS =           0.0000

           TOTAL OUT =  1120000384.0000             TOTAL OUT =      160000.0000

            IN - OUT =        -384.0000              IN - OUT =           0.0000

 PERCENT DISCREPANCY =          -0.00     PERCENT DISCREPANCY =           0.00






         TIME SUMMARY AT END OF TIME STEP    1 IN STRESS PERIOD   14
                    SECONDS     MINUTES      HOURS       DAYS        YEARS
                    -----------------------------------------------------------
   TIME STEP LENGTH 4.32000E+07 7.20000E+05  12000.      500.00      1.3689    
 STRESS PERIOD TIME 4.32000E+07 7.20000E+05  12000.      500.00      1.3689    
         TOTAL TIME 6.04800E+08 1.00800E+07 1.68000E+05  7000.0      19.165    
1
1
                            STRESS PERIOD NO.   15, LENGTH =   500.0000    
                            -----------------------------------------------

                              NUMBER OF TIME STEPS =     1

                               MULTIPLIER FOR DELT =     1.000

                            INITIAL TIME STEP SIZE =   500.0000    

 WELL NO.  LAYER   ROW   COL   STRESS RATE         
 --------------------------------------------------
      1      1     41     41      0.1600E+06

      1 WELL 

 REUSING NON-PARAMETER SPECIFIED-HEAD DATA FROM LAST STRESS PERIOD


    236 TIME-VARIANT SPECIFIED-HEAD CELLS

 SOLVING FOR HEAD 
          0                 1           1            39   52     1      -0.6721734289E-11      37   32    1      -0.4656612873E-09      0.5958542860E-08      0.9180125057E-08     -0.6721734289E-11

    ------------------------------------------------
       NWT REQUIRED            1 OUTER ITERATIONS 
       AND A TOTAL OF          1 INNER ITERATIONS.
    ------------------------------------------------

 OUTPUT CONTROL FOR STRESS PERIOD   15   TIME STEP    1
    SAVE HEAD FOR ALL LAYERS
    SAVE BUDGET
 UBDSV2 SAVING "   CONSTANT HEAD" ON UNIT  53 AT TIME STEP  1, STRESS PERIOD  15
 UBDSV1 SAVING "FLOW RIGHT FACE " ON UNIT  53 AT TIME STEP  1, STRESS PERIOD  15
 UBDSV1 SAVING "FLOW FRONT FACE " ON UNIT  53 AT TIME STEP  1, STRESS PERIOD  15

 HEAD WILL BE SAVED ON UNIT   51 AT END OF TIME STEP    1, STRESS PERIOD   15
1
  VOLUMETRIC BUDGET FOR ENTIRE MODEL AT END OF TIME STEP    1, STRESS PERIOD  15
  ------------------------------------------------------------------------------

     CUMULATIVE VOLUMES      L**3       RATES FOR THIS TIME STEP      L**3/T
     ------------------                 ------------------------

           IN:                                      IN:
           ---                                      ---
             STORAGE =           0.0000               STORAGE =           0.0000
       CONSTANT HEAD =           0.0000         CONSTANT HEAD =           0.0000
               WELLS =  1200000000.0000                 WELLS =      160000.0000

            TOTAL IN =  1200000000.0000              TOTAL IN =      160000.0000

          OUT:                                     OUT:
          ----                                     ----
             STORAGE =           0.0000               STORAGE =           0.0000
       CONSTANT HEAD =  1200000384.0000         CONSTANT HEAD =      160000.0000
               WELLS =           0.0000                 WELLS =           0.0000

           TOTAL OUT =  1200000384.0000             TOTAL OUT =      160000.0000

            IN - OUT =        -384.0000              IN - OUT =           0.0000

 PERCENT DISCREPANCY =          -0.00     PERCENT DISCREPANCY =           0.00






         TIME SUMMARY AT END OF TIME STEP    1 IN STRESS PERIOD   15
                    SECONDS     MINUTES      HOURS       DAYS        YEARS
                    -----------------------------------------------------------
   TIME STEP LENGTH 4.32000E+07 7.20000E+05  12000.      500.00      1.3689    
 STRESS PERIOD TIME 4.32000E+07 7.20000E+05  12000.      500.00      1.3689    
         TOTAL TIME 6.48000E+08 1.08000E+07 1.80000E+05  7500.0      20.534    
1

 Run end date and time (yyyy/mm/dd hh:mm:ss): 2018/07/13 11:13:20
 Elapsed run time:  0.191 Seconds

