                                  MODFLOW-NWT-SWR1 
      U.S. GEOLOGICAL SURVEY MODULAR FINITE-DIFFERENCE GROUNDWATER-FLOW MODEL
                             VERSION 1.1.4 4/01/2018
                    BASED ON MODFLOW-2005 VERSION 1.12.00 02/03/2017

 LIST FILE: pollock_88.list
                         UNIT    2

 OPENING pollock_88.dis
 FILE TYPE:DIS   UNIT   11   STATUS:OLD    
 FORMAT:FORMATTED              ACCESS:SEQUENTIAL          

 OPENING pollock_88.upw
 FILE TYPE:UPW   UNIT   31   STATUS:OLD    
 FORMAT:FORMATTED              ACCESS:SEQUENTIAL          

 OPENING pollock_88.bas
 FILE TYPE:BAS6   UNIT   13   STATUS:OLD    
 FORMAT:FORMATTED              ACCESS:SEQUENTIAL          

 OPENING pollock_88.oc
 FILE TYPE:OC   UNIT   14   STATUS:OLD    
 FORMAT:FORMATTED              ACCESS:SEQUENTIAL          

 OPENING pollock_88.nwt
 FILE TYPE:NWT   UNIT   32   STATUS:OLD    
 FORMAT:FORMATTED              ACCESS:SEQUENTIAL          

 OPENING pollock_88.wel
 FILE TYPE:WEL   UNIT   20   STATUS:OLD    
 FORMAT:FORMATTED              ACCESS:SEQUENTIAL          

 OPENING pollock_88.chd
 FILE TYPE:CHD   UNIT   24   STATUS:OLD    
 FORMAT:FORMATTED              ACCESS:SEQUENTIAL          

 OPENING pollock_88.cbc
 FILE TYPE:DATA(BINARY)   UNIT   53   STATUS:REPLACE
 FORMAT:UNFORMATTED            ACCESS:STREAM              

 OPENING pollock_88.hds
 FILE TYPE:DATA(BINARY)   UNIT   51   STATUS:REPLACE
 FORMAT:UNFORMATTED            ACCESS:STREAM              

 BAS -- BASIC PACKAGE, VERSION 1.1.4, 4/01/2018 INPUT READ FROM UNIT   13

 MODFLOW was compiled using mixed precision
 Precision of REAL variables:           6
 Precision of DOUBLE PRECISION variables:          15

 DISCRETIZATION INPUT DATA READ FROM UNIT   11
 # DIS package for  MODFLOW-NWT, generated by Flopy.
    1 LAYERS        81 ROWS        81 COLUMNS
   10 STRESS PERIOD(S) IN SIMULATION
 MODEL TIME UNIT IS DAYS
 MODEL LENGTH UNIT IS METERS
  Confining bed flag for each layer:
   0

                     DELR =   100.000    

                     DELC =   100.000    



           TOP ELEVATION OF LAYER 1
 READING ON UNIT   11 WITH FORMAT: (81E15.6)           



             MODEL LAYER BOTTOM EL. FOR LAYER   1
 READING ON UNIT   11 WITH FORMAT: (81E15.6)           


 STRESS PERIOD     LENGTH       TIME STEPS     MULTIPLIER FOR DELT    SS FLAG
 ----------------------------------------------------------------------------
        1         500.0000          1                    1.000         TR
        2         500.0000          1                    1.000         TR
        3         500.0000          1                    1.000         TR
        4         500.0000          1                    1.000         TR
        5         500.0000          1                    1.000         TR
        6         500.0000          1                    1.000         TR
        7         500.0000          1                    1.000         TR
        8         500.0000          1                    1.000         TR
        9         500.0000          1                    1.000         TR
       10         500.0000          1                    1.000         TR

 TRANSIENT SIMULATION




 # BAS6 package for  MODFLOW-NWT, generated by Flopy.                            
 THE FREE FORMAT OPTION HAS BEEN SELECTED

           BOUNDARY ARRAY =              1 FOR LAYER   1

 AQUIFER HEAD WILL BE SET TO  -999.99     AT ALL NO-FLOW NODES (IBOUND=0).

             INITIAL HEAD =   100.000     FOR LAYER   1
 # OC package for  MODFLOW-NWT, generated by Flopy.

 OUTPUT CONTROL IS SPECIFIED ONLY AT TIME STEPS FOR WHICH OUTPUT IS DESIRED
 COMPACT CELL-BY-CELL BUDGET FILES WILL BE WRITTEN
 AUXILIARY DATA WILL BE SAVED IN CELL-BY-CELL BUDGET FILES
 HEAD PRINT FORMAT CODE IS   0    DRAWDOWN PRINT FORMAT CODE IS   0
 HEADS WILL BE SAVED ON UNIT   51    DRAWDOWNS WILL BE SAVED ON UNIT    0
 # NWT package for  MODFLOW-NWT, generated by Flopy.

 NWT1 -- Newton Solver, VERSION 1.1.4, 4/01/2018
         INPUT READ FROM UNIT 32

 COMPLEX OPTION:
 DEFAULT SOLVER INPUT VALUES REFLECT STRONGLY NONLINEAR MODEL
 ***XMD linear solver will be used***

   CONVERGENCE CRITERION OF   0.100000E-01 FOR HEAD SOLUTION
   AND A TOLERANCE OF   0.500000E+03 FOR FLOW SOLUTION AND 
   A MAXIMUM OF  5000 OUTER ITERATIONS. 


   D-B-D REDUCTION FACTOR OF    0.850000E+00 AND 
   A D-B-D INCREASE FACTOR OF    0.100000E-04 AND 
   A D-B-D RELAXATION OF    0.000000E+00 AND 
   A MOMENTUM FACTOR OF    0.100000E+00 .


   BACKTRACKING IS ACTIVE 
   THE MAXIMUM NUMBER OF BACKTRACKS IS    50 AND 
   THE BACKTRACKING TOLERANCE IS    0.110000E+01 AND
   THE BACKTRACKING REDUCTION FACTOR IS    0.700000E+00

 XMD -- LINEAR SOLUTION BY XMD PACKAGE VERSION 1.30
     BY MOTOMU IBARAKI, OHIO STATE UNIVERSITY, COLOMBUS, OH
                 INPUT READ FROM UNIT 32
 ACCELERATION METHOD                    (IACL) =         2
 NODE ORDERING FLAG                   (NORDER) =         0
 LEVEL OF FILL                         (LEVEL) =        15
 MAXIMUM NUMBER OF ORTHOGONALIZATIONS  (NORTH) =         1
 INDEX FOR USING REDUCED SYSTEM      (IREDSYS) =         1
 RESID. REDUCTION CONVERGE CRITERION  (RRCTOL) =  0.000000E+00
 INDEX FOR USING DROP TOLERANCE     (IDROPTOL) =         1
 DROP TOLERANCE VALUE                  (EPSRN) =  0.100000E-02
 CONVERGENCE CRITERIA OF           (HCLOSEXMD) =  0.100000E-03
 MAX. NUMBER OF LINEAR ITERATIONS  (MXITERXMD) =       200


 UPW1 -- UPSTREAM WEIGHTING FLOW PACKAGE, VERSION 1.1.4, 4/01/2018
         INPUT READ FROM UNIT 31

 # UPW package for  MODFLOW-NWT, generated by Flopy.
 CELL-BY-CELL FLOWS WILL BE SAVED ON UNIT   53
 No named parameters

   LAYER FLAGS:
 LAYER       LAYTYP          LAYAVG    CHANI           LAYVKA           LAYWET
 ---------------------------------------------------------------------------
    1             0             0     1.000E+00             0             0

   INTERPRETATION OF LAYER FLAGS:
                        INTERBLOCK     HORIZONTAL    DATA IN
         LAYER TYPE   TRANSMISSIVITY   ANISOTROPY   ARRAY VKA   WETTABILITY
 LAYER   (LAYTYP)        (LAYAVG)      (CHANI)     (LAYVKA)       (LAYWET)
 ---------------------------------------------------------------------------
    1      CONFINED      HARMONIC     1.000E+00    VERTICAL K  NON-WETTABLE

    HYD. COND. ALONG ROWS =   10.0000     FOR LAYER   1

      VERTICAL HYD. COND. =   1.00000     FOR LAYER   1

         SPECIFIC STORAGE =  1.000000E-05 FOR LAYER   1

 WEL -- WELL PACKAGE FOR NWT VERSION 1.1.4,  4/01/2018 INPUT READ FROM UNIT   20
 # WEL package for  MODFLOW-NWT, generated by Flopy.
 No named parameters
 MAXIMUM OF      1 ACTIVE WELLS AT ONE TIME
 No named parameters
  PHIRAMP WILL BE SET TO A DEFAULT VALUE OF 1.0E-5
  WELLS WITH REDUCED PUMPING WILL BE REPORTED TO THE MAIN LISTING FILE


     0 Well parameters

 CHD -- TIME-VARIANT SPECIFIED-HEAD OPTION, VERSION 7, 5/2/2005
 INPUT READ FROM UNIT   24
 # CHD package for  MODFLOW-NWT, generated by Flopy.
 No named parameters
 MAXIMUM OF    260 TIME-VARIANT SPECIFIED-HEAD CELLS AT ONE TIME


     0 TIME-VARIANT SPECIFIED-HEAD PARAMETERS
1
                            STRESS PERIOD NO.    1, LENGTH =   500.0000    
                            -----------------------------------------------

                              NUMBER OF TIME STEPS =     1

                               MULTIPLIER FOR DELT =     1.000

                            INITIAL TIME STEP SIZE =   500.0000    

 WELL NO.  LAYER   ROW   COL   STRESS RATE         
 --------------------------------------------------
      1      1     41     41      0.4000E+05

      1 WELL 

 CHD NO.   LAYER   ROW   COL    START HEAD        END HEAD         
 ------------------------------------------------------------------
      1      1      1     41       100.0           100.0    
      2      1      2     33       100.0           100.0    
      3      1      2     34       100.0           100.0    
      4      1      2     35       100.0           100.0    
      5      1      2     36       100.0           100.0    
      6      1      2     37       100.0           100.0    
      7      1      2     38       100.0           100.0    
      8      1      2     39       100.0           100.0    
      9      1      2     40       100.0           100.0    
     10      1      2     41       100.0           100.0    
     11      1      2     42       100.0           100.0    
     12      1      2     43       100.0           100.0    
     13      1      2     44       100.0           100.0    
     14      1      2     45       100.0           100.0    
     15      1      2     46       100.0           100.0    
     16      1      2     47       100.0           100.0    
     17      1      2     48       100.0           100.0    
     18      1      2     49       100.0           100.0    
     19      1      3     29       100.0           100.0    
     20      1      3     30       100.0           100.0    
     21      1      3     31       100.0           100.0    
     22      1      3     32       100.0           100.0    
     23      1      3     50       100.0           100.0    
     24      1      3     51       100.0           100.0    
     25      1      3     52       100.0           100.0    
     26      1      3     53       100.0           100.0    
     27      1      4     26       100.0           100.0    
     28      1      4     27       100.0           100.0    
     29      1      4     28       100.0           100.0    
     30      1      4     54       100.0           100.0    
     31      1      4     55       100.0           100.0    
     32      1      4     56       100.0           100.0    
     33      1      5     24       100.0           100.0    
     34      1      5     25       100.0           100.0    
     35      1      5     26       100.0           100.0    
     36      1      5     56       100.0           100.0    
     37      1      5     57       100.0           100.0    
     38      1      5     58       100.0           100.0    
     39      1      6     22       100.0           100.0    
     40      1      6     23       100.0           100.0    
     41      1      6     59       100.0           100.0    
     42      1      6     60       100.0           100.0    
     43      1      7     20       100.0           100.0    
     44      1      7     21       100.0           100.0    
     45      1      7     61       100.0           100.0    
     46      1      7     62       100.0           100.0    
     47      1      8     19       100.0           100.0    
     48      1      8     20       100.0           100.0    
     49      1      8     62       100.0           100.0    
     50      1      8     63       100.0           100.0    
     51      1      9     17       100.0           100.0    
     52      1      9     18       100.0           100.0    
     53      1      9     64       100.0           100.0    
     54      1      9     65       100.0           100.0    
     55      1     10     16       100.0           100.0    
     56      1     10     17       100.0           100.0    
     57      1     10     65       100.0           100.0    
     58      1     10     66       100.0           100.0    
     59      1     11     15       100.0           100.0    
     60      1     11     16       100.0           100.0    
     61      1     11     66       100.0           100.0    
     62      1     11     67       100.0           100.0    
     63      1     12     14       100.0           100.0    
     64      1     12     68       100.0           100.0    
     65      1     13     13       100.0           100.0    
     66      1     13     69       100.0           100.0    
     67      1     14     12       100.0           100.0    
     68      1     14     70       100.0           100.0    
     69      1     15     11       100.0           100.0    
     70      1     15     71       100.0           100.0    
     71      1     16     10       100.0           100.0    
     72      1     16     11       100.0           100.0    
     73      1     16     71       100.0           100.0    
     74      1     16     72       100.0           100.0    
     75      1     17      9       100.0           100.0    
     76      1     17     10       100.0           100.0    
     77      1     17     72       100.0           100.0    
     78      1     17     73       100.0           100.0    
     79      1     18      9       100.0           100.0    
     80      1     18     73       100.0           100.0    
     81      1     19      8       100.0           100.0    
     82      1     19     74       100.0           100.0    
     83      1     20      7       100.0           100.0    
     84      1     20      8       100.0           100.0    
     85      1     20     74       100.0           100.0    
     86      1     20     75       100.0           100.0    
     87      1     21      7       100.0           100.0    
     88      1     21     75       100.0           100.0    
     89      1     22      6       100.0           100.0    
     90      1     22     76       100.0           100.0    
     91      1     23      6       100.0           100.0    
     92      1     23     76       100.0           100.0    
     93      1     24      5       100.0           100.0    
     94      1     24     77       100.0           100.0    
     95      1     25      5       100.0           100.0    
     96      1     25     77       100.0           100.0    
     97      1     26      4       100.0           100.0    
     98      1     26      5       100.0           100.0    
     99      1     26     77       100.0           100.0    
    100      1     26     78       100.0           100.0    
    101      1     27      4       100.0           100.0    
    102      1     27     78       100.0           100.0    
    103      1     28      4       100.0           100.0    
    104      1     28     78       100.0           100.0    
    105      1     29      3       100.0           100.0    
    106      1     29     79       100.0           100.0    
    107      1     30      3       100.0           100.0    
    108      1     30     79       100.0           100.0    
    109      1     31      3       100.0           100.0    
    110      1     31     79       100.0           100.0    
    111      1     32      3       100.0           100.0    
    112      1     32     79       100.0           100.0    
    113      1     33      2       100.0           100.0    
    114      1     33     80       100.0           100.0    
    115      1     34      2       100.0           100.0    
    116      1     34     80       100.0           100.0    
    117      1     35      2       100.0           100.0    
    118      1     35     80       100.0           100.0    
    119      1     36      2       100.0           100.0    
    120      1     36     80       100.0           100.0    
    121      1     37      2       100.0           100.0    
    122      1     37     80       100.0           100.0    
    123      1     38      2       100.0           100.0    
    124      1     38     80       100.0           100.0    
    125      1     39      2       100.0           100.0    
    126      1     39     80       100.0           100.0    
    127      1     40      2       100.0           100.0    
    128      1     40     80       100.0           100.0    
    129      1     41      1       100.0           100.0    
    130      1     41      2       100.0           100.0    
    131      1     41     80       100.0           100.0    
    132      1     41     81       100.0           100.0    
    133      1     42      2       100.0           100.0    
    134      1     42     80       100.0           100.0    
    135      1     43      2       100.0           100.0    
    136      1     43     80       100.0           100.0    
    137      1     44      2       100.0           100.0    
    138      1     44     80       100.0           100.0    
    139      1     45      2       100.0           100.0    
    140      1     45     80       100.0           100.0    
    141      1     46      2       100.0           100.0    
    142      1     46     80       100.0           100.0    
    143      1     47      2       100.0           100.0    
    144      1     47     80       100.0           100.0    
    145      1     48      2       100.0           100.0    
    146      1     48     80       100.0           100.0    
    147      1     49      2       100.0           100.0    
    148      1     49     80       100.0           100.0    
    149      1     50      3       100.0           100.0    
    150      1     50     79       100.0           100.0    
    151      1     51      3       100.0           100.0    
    152      1     51     79       100.0           100.0    
    153      1     52      3       100.0           100.0    
    154      1     52     79       100.0           100.0    
    155      1     53      3       100.0           100.0    
    156      1     53     79       100.0           100.0    
    157      1     54      4       100.0           100.0    
    158      1     54     78       100.0           100.0    
    159      1     55      4       100.0           100.0    
    160      1     55     78       100.0           100.0    
    161      1     56      4       100.0           100.0    
    162      1     56      5       100.0           100.0    
    163      1     56     77       100.0           100.0    
    164      1     56     78       100.0           100.0    
    165      1     57      5       100.0           100.0    
    166      1     57     77       100.0           100.0    
    167      1     58      5       100.0           100.0    
    168      1     58     77       100.0           100.0    
    169      1     59      6       100.0           100.0    
    170      1     59     76       100.0           100.0    
    171      1     60      6       100.0           100.0    
    172      1     60     76       100.0           100.0    
    173      1     61      7       100.0           100.0    
    174      1     61     75       100.0           100.0    
    175      1     62      7       100.0           100.0    
    176      1     62      8       100.0           100.0    
    177      1     62     74       100.0           100.0    
    178      1     62     75       100.0           100.0    
    179      1     63      8       100.0           100.0    
    180      1     63     74       100.0           100.0    
    181      1     64      9       100.0           100.0    
    182      1     64     73       100.0           100.0    
    183      1     65      9       100.0           100.0    
    184      1     65     10       100.0           100.0    
    185      1     65     72       100.0           100.0    
    186      1     65     73       100.0           100.0    
    187      1     66     10       100.0           100.0    
    188      1     66     11       100.0           100.0    
    189      1     66     71       100.0           100.0    
    190      1     66     72       100.0           100.0    
    191      1     67     11       100.0           100.0    
    192      1     67     71       100.0           100.0    
    193      1     68     12       100.0           100.0    
    194      1     68     70       100.0           100.0    
    195      1     69     13       100.0           100.0    
    196      1     69     69       100.0           100.0    
    197      1     70     14       100.0           100.0    
    198      1     70     68       100.0           100.0    
    199      1     71     15       100.0           100.0    
    200      1     71     16       100.0           100.0    
    201      1     71     66       100.0           100.0    
    202      1     71     67       100.0           100.0    
    203      1     72     16       100.0           100.0    
    204      1     72     17       100.0           100.0    
    205      1     72     65       100.0           100.0    
    206      1     72     66       100.0           100.0    
    207      1     73     17       100.0           100.0    
    208      1     73     18       100.0           100.0    
    209      1     73     64       100.0           100.0    
    210      1     73     65       100.0           100.0    
    211      1     74     19       100.0           100.0    
    212      1     74     20       100.0           100.0    
    213      1     74     62       100.0           100.0    
    214      1     74     63       100.0           100.0    
    215      1     75     20       100.0           100.0    
    216      1     75     21       100.0           100.0    
    217      1     75     61       100.0           100.0    
    218      1     75     62       100.0           100.0    
    219      1     76     22       100.0           100.0    
    220      1     76     23       100.0           100.0    
    221      1     76     59       100.0           100.0    
    222      1     76     60       100.0           100.0    
    223      1     77     24       100.0           100.0    
    224      1     77     25       100.0           100.0    
    225      1     77     26       100.0           100.0    
    226      1     77     56       100.0           100.0    
    227      1     77     57       100.0           100.0    
    228      1     77     58       100.0           100.0    
    229      1     78     26       100.0           100.0    
    230      1     78     27       100.0           100.0    
    231      1     78     28       100.0           100.0    
    232      1     78     54       100.0           100.0    
    233      1     78     55       100.0           100.0    
    234      1     78     56       100.0           100.0    
    235      1     79     29       100.0           100.0    
    236      1     79     30       100.0           100.0    
    237      1     79     31       100.0           100.0    
    238      1     79     32       100.0           100.0    
    239      1     79     50       100.0           100.0    
    240      1     79     51       100.0           100.0    
    241      1     79     52       100.0           100.0    
    242      1     79     53       100.0           100.0    
    243      1     80     33       100.0           100.0    
    244      1     80     34       100.0           100.0    
    245      1     80     35       100.0           100.0    
    246      1     80     36       100.0           100.0    
    247      1     80     37       100.0           100.0    
    248      1     80     38       100.0           100.0    
    249      1     80     39       100.0           100.0    
    250      1     80     40       100.0           100.0    
    251      1     80     41       100.0           100.0    
    252      1     80     42       100.0           100.0    
    253      1     80     43       100.0           100.0    
    254      1     80     44       100.0           100.0    
    255      1     80     45       100.0           100.0    
    256      1     80     46       100.0           100.0    
    257      1     80     47       100.0           100.0    
    258      1     80     48       100.0           100.0    
    259      1     80     49       100.0           100.0    
    260      1     81     41       100.0           100.0    


    260 TIME-VARIANT SPECIFIED-HEAD CELLS

 SOLVING FOR HEAD 
                                                   Max.-Head-Change                        Max.-Flux-Residual
  Residual-Control   Outer-Iter.   Inner-Iter.     Column Row Layer    Max.-Head-Change    Column Row Layer    Max.-Flux-Residual            L2-New               L2-Old           Solver-Max-Delh
          0                 1           9            41   41     1       0.3698061999E+02      41   41    1       0.4000000000E+05      0.4000000000E+05      0.0000000000E+00      0.3698061999E+02
          0                 2           7            41   41     1      -0.3193780097E+01      41   41    1      -0.4000000060E+04      0.4000000060E+04      0.4000000000E+05     -0.3193780097E+01
          0                 3           6            41   41     1      -0.1596905831E+00      41   41    1      -0.1999999017E+03      0.1999999017E+03      0.4000000060E+04     -0.1596905831E+00
          0                 4           5            41   41     1      -0.7983029673E-02      41   41    1      -0.9997990017E+01      0.9997990021E+01      0.1999999017E+03     -0.7983029673E-02

    ------------------------------------------------
       NWT REQUIRED            4 OUTER ITERATIONS 
       AND A TOTAL OF         27 INNER ITERATIONS.
    ------------------------------------------------

 OUTPUT CONTROL FOR STRESS PERIOD    1   TIME STEP    1
    SAVE HEAD FOR ALL LAYERS
    SAVE BUDGET
 UBDSV1 SAVING "         STORAGE" ON UNIT  53 AT TIME STEP  1, STRESS PERIOD   1
 UBDSV2 SAVING "   CONSTANT HEAD" ON UNIT  53 AT TIME STEP  1, STRESS PERIOD   1
 UBDSV1 SAVING "FLOW RIGHT FACE " ON UNIT  53 AT TIME STEP  1, STRESS PERIOD   1
 UBDSV1 SAVING "FLOW FRONT FACE " ON UNIT  53 AT TIME STEP  1, STRESS PERIOD   1

 HEAD WILL BE SAVED ON UNIT   51 AT END OF TIME STEP    1, STRESS PERIOD    1
1
  VOLUMETRIC BUDGET FOR ENTIRE MODEL AT END OF TIME STEP    1, STRESS PERIOD   1
  ------------------------------------------------------------------------------

     CUMULATIVE VOLUMES      L**3       RATES FOR THIS TIME STEP      L**3/T
     ------------------                 ------------------------

           IN:                                      IN:
           ---                                      ---
             STORAGE =       1.0676E-08               STORAGE =       2.1352E-11
       CONSTANT HEAD =       1.4211E-05         CONSTANT HEAD =       2.8422E-08
               WELLS =    20000000.0000                 WELLS =       40000.0000

            TOTAL IN =    20000000.0000              TOTAL IN =       40000.0000

          OUT:                                     OUT:
          ----                                     ----
             STORAGE =      153684.6562               STORAGE =         307.3693
       CONSTANT HEAD =    19846566.0000         CONSTANT HEAD =       39693.1328
               WELLS =           0.0000                 WELLS =           0.0000

           TOTAL OUT =    20000250.0000             TOTAL OUT =       40000.5039

            IN - OUT =        -250.0000              IN - OUT =          -0.5039

 PERCENT DISCREPANCY =          -0.00     PERCENT DISCREPANCY =          -0.00






         TIME SUMMARY AT END OF TIME STEP    1 IN STRESS PERIOD    1
                    SECONDS     MINUTES      HOURS       DAYS        YEARS
                    -----------------------------------------------------------
   TIME STEP LENGTH 4.32000E+07 7.20000E+05  12000.      500.00      1.3689    
 STRESS PERIOD TIME 4.32000E+07 7.20000E+05  12000.      500.00      1.3689    
         TOTAL TIME 4.32000E+07 7.20000E+05  12000.      500.00      1.3689    
1
1
                            STRESS PERIOD NO.    2, LENGTH =   500.0000    
                            -----------------------------------------------

                              NUMBER OF TIME STEPS =     1

                               MULTIPLIER FOR DELT =     1.000

                            INITIAL TIME STEP SIZE =   500.0000    

 WELL NO.  LAYER   ROW   COL   STRESS RATE         
 --------------------------------------------------
      1      1     41     41      0.4000E+05

      1 WELL 

 REUSING NON-PARAMETER SPECIFIED-HEAD DATA FROM LAST STRESS PERIOD


    260 TIME-VARIANT SPECIFIED-HEAD CELLS

 SOLVING FOR HEAD 
                                                   Max.-Head-Change                        Max.-Flux-Residual
  Residual-Control   Outer-Iter.   Inner-Iter.     Column Row Layer    Max.-Head-Change    Column Row Layer    Max.-Flux-Residual            L2-New               L2-Old           Solver-Max-Delh
          0                 1           5            41   41     1       0.5322548467E-01      40   41    1       0.4723812878E+00      0.6214793533E+01      0.9997990021E+01      0.5322548467E-01
          0                 2           3            41   41     1      -0.4594910463E-02      41   40    1      -0.4721858207E-01      0.6214348442E+00      0.6214793533E+01     -0.4594910463E-02

    ------------------------------------------------
       NWT REQUIRED            2 OUTER ITERATIONS 
       AND A TOTAL OF          8 INNER ITERATIONS.
    ------------------------------------------------

 OUTPUT CONTROL FOR STRESS PERIOD    2   TIME STEP    1
    SAVE HEAD FOR ALL LAYERS
    SAVE BUDGET
 UBDSV1 SAVING "         STORAGE" ON UNIT  53 AT TIME STEP  1, STRESS PERIOD   2
 UBDSV2 SAVING "   CONSTANT HEAD" ON UNIT  53 AT TIME STEP  1, STRESS PERIOD   2
 UBDSV1 SAVING "FLOW RIGHT FACE " ON UNIT  53 AT TIME STEP  1, STRESS PERIOD   2
 UBDSV1 SAVING "FLOW FRONT FACE " ON UNIT  53 AT TIME STEP  1, STRESS PERIOD   2

 HEAD WILL BE SAVED ON UNIT   51 AT END OF TIME STEP    1, STRESS PERIOD    2
1
  VOLUMETRIC BUDGET FOR ENTIRE MODEL AT END OF TIME STEP    1, STRESS PERIOD   2
  ------------------------------------------------------------------------------

     CUMULATIVE VOLUMES      L**3       RATES FOR THIS TIME STEP      L**3/T
     ------------------                 ------------------------

           IN:                                      IN:
           ---                                      ---
             STORAGE =       2.1279E-08               STORAGE =       2.1207E-11
       CONSTANT HEAD =       2.8024E-05         CONSTANT HEAD =       2.7626E-08
               WELLS =    40000000.0000                 WELLS =       40000.0000

            TOTAL IN =    40000000.0000              TOTAL IN =       40000.0000

          OUT:                                     OUT:
          ----                                     ----
             STORAGE =      154573.6875               STORAGE =           1.7780
       CONSTANT HEAD =    39846456.0000         CONSTANT HEAD =       39999.7812
               WELLS =           0.0000                 WELLS =           0.0000

           TOTAL OUT =    40001028.0000             TOTAL OUT =       40001.5586

            IN - OUT =       -1028.0000              IN - OUT =          -1.5586

 PERCENT DISCREPANCY =          -0.00     PERCENT DISCREPANCY =          -0.00






         TIME SUMMARY AT END OF TIME STEP    1 IN STRESS PERIOD    2
                    SECONDS     MINUTES      HOURS       DAYS        YEARS
                    -----------------------------------------------------------
   TIME STEP LENGTH 4.32000E+07 7.20000E+05  12000.      500.00      1.3689    
 STRESS PERIOD TIME 4.32000E+07 7.20000E+05  12000.      500.00      1.3689    
         TOTAL TIME 8.64000E+07 1.44000E+06  24000.      1000.0      2.7379    
1
1
                            STRESS PERIOD NO.    3, LENGTH =   500.0000    
                            -----------------------------------------------

                              NUMBER OF TIME STEPS =     1

                               MULTIPLIER FOR DELT =     1.000

                            INITIAL TIME STEP SIZE =   500.0000    

 WELL NO.  LAYER   ROW   COL   STRESS RATE         
 --------------------------------------------------
      1      1     41     41      0.4000E+05

      1 WELL 

 REUSING NON-PARAMETER SPECIFIED-HEAD DATA FROM LAST STRESS PERIOD


    260 TIME-VARIANT SPECIFIED-HEAD CELLS

 SOLVING FOR HEAD 
          0                 1           1            41   42     1      -0.1765124794E-04      41   42    1      -0.1441577973E-02      0.8794561869E-02      0.6214348442E+00     -0.1765124794E-04

    ------------------------------------------------
       NWT REQUIRED            1 OUTER ITERATIONS 
       AND A TOTAL OF          1 INNER ITERATIONS.
    ------------------------------------------------

 OUTPUT CONTROL FOR STRESS PERIOD    3   TIME STEP    1
    SAVE HEAD FOR ALL LAYERS
    SAVE BUDGET
 UBDSV1 SAVING "         STORAGE" ON UNIT  53 AT TIME STEP  1, STRESS PERIOD   3
 UBDSV2 SAVING "   CONSTANT HEAD" ON UNIT  53 AT TIME STEP  1, STRESS PERIOD   3
 UBDSV1 SAVING "FLOW RIGHT FACE " ON UNIT  53 AT TIME STEP  1, STRESS PERIOD   3
 UBDSV1 SAVING "FLOW FRONT FACE " ON UNIT  53 AT TIME STEP  1, STRESS PERIOD   3

 HEAD WILL BE SAVED ON UNIT   51 AT END OF TIME STEP    1, STRESS PERIOD    3
1
  VOLUMETRIC BUDGET FOR ENTIRE MODEL AT END OF TIME STEP    1, STRESS PERIOD   3
  ------------------------------------------------------------------------------

     CUMULATIVE VOLUMES      L**3       RATES FOR THIS TIME STEP      L**3/T
     ------------------                 ------------------------

           IN:                                      IN:
           ---                                      ---
             STORAGE =       3.6130E-02               STORAGE =       7.2260E-05
       CONSTANT HEAD =       4.2967E-05         CONSTANT HEAD =       2.9885E-08
               WELLS =    60000000.0000                 WELLS =       40000.0000

            TOTAL IN =    60000000.0000              TOTAL IN =       40000.0000

          OUT:                                     OUT:
          ----                                     ----
             STORAGE =      154573.8906               STORAGE =       3.9553E-04
       CONSTANT HEAD =    59846416.0000         CONSTANT HEAD =       39999.9219
               WELLS =           0.0000                 WELLS =           0.0000

           TOTAL OUT =    60000988.0000             TOTAL OUT =       39999.9219

            IN - OUT =        -988.0000              IN - OUT =       7.8125E-02

 PERCENT DISCREPANCY =          -0.00     PERCENT DISCREPANCY =           0.00






         TIME SUMMARY AT END OF TIME STEP    1 IN STRESS PERIOD    3
                    SECONDS     MINUTES      HOURS       DAYS        YEARS
                    -----------------------------------------------------------
   TIME STEP LENGTH 4.32000E+07 7.20000E+05  12000.      500.00      1.3689    
 STRESS PERIOD TIME 4.32000E+07 7.20000E+05  12000.      500.00      1.3689    
         TOTAL TIME 1.29600E+08 2.16000E+06  36000.      1500.0      4.1068    
1
1
                            STRESS PERIOD NO.    4, LENGTH =   500.0000    
                            -----------------------------------------------

                              NUMBER OF TIME STEPS =     1

                               MULTIPLIER FOR DELT =     1.000

                            INITIAL TIME STEP SIZE =   500.0000    

 WELL NO.  LAYER   ROW   COL   STRESS RATE         
 --------------------------------------------------
      1      1     41     41      0.4000E+05

      1 WELL 

 REUSING NON-PARAMETER SPECIFIED-HEAD DATA FROM LAST STRESS PERIOD


    260 TIME-VARIANT SPECIFIED-HEAD CELLS

 SOLVING FOR HEAD 
          0                 1           1            41   39     1       0.5358197662E-05      40   40    1       0.1115943305E-03      0.2130591090E-02      0.8794561869E-02      0.5358197662E-05

    ------------------------------------------------
       NWT REQUIRED            1 OUTER ITERATIONS 
       AND A TOTAL OF          1 INNER ITERATIONS.
    ------------------------------------------------

 OUTPUT CONTROL FOR STRESS PERIOD    4   TIME STEP    1
    SAVE HEAD FOR ALL LAYERS
    SAVE BUDGET
 UBDSV1 SAVING "         STORAGE" ON UNIT  53 AT TIME STEP  1, STRESS PERIOD   4
 UBDSV2 SAVING "   CONSTANT HEAD" ON UNIT  53 AT TIME STEP  1, STRESS PERIOD   4
 UBDSV1 SAVING "FLOW RIGHT FACE " ON UNIT  53 AT TIME STEP  1, STRESS PERIOD   4
 UBDSV1 SAVING "FLOW FRONT FACE " ON UNIT  53 AT TIME STEP  1, STRESS PERIOD   4

 HEAD WILL BE SAVED ON UNIT   51 AT END OF TIME STEP    1, STRESS PERIOD    4
1
  VOLUMETRIC BUDGET FOR ENTIRE MODEL AT END OF TIME STEP    1, STRESS PERIOD   4
  ------------------------------------------------------------------------------

     CUMULATIVE VOLUMES      L**3       RATES FOR THIS TIME STEP      L**3/T
     ------------------                 ------------------------

           IN:                                      IN:
           ---                                      ---
             STORAGE =       4.7813E-02               STORAGE =       2.3365E-05
       CONSTANT HEAD =       5.7753E-05         CONSTANT HEAD =       2.9573E-08
               WELLS =    80000000.0000                 WELLS =       40000.0000

            TOTAL IN =    80000000.0000              TOTAL IN =       40000.0000

          OUT:                                     OUT:
          ----                                     ----
             STORAGE =      154574.0156               STORAGE =       2.3557E-04
       CONSTANT HEAD =    79846400.0000         CONSTANT HEAD =       39999.9766
               WELLS =           0.0000                 WELLS =           0.0000

           TOTAL OUT =    80000976.0000             TOTAL OUT =       39999.9766

            IN - OUT =        -976.0000              IN - OUT =       2.3438E-02

 PERCENT DISCREPANCY =          -0.00     PERCENT DISCREPANCY =           0.00






         TIME SUMMARY AT END OF TIME STEP    1 IN STRESS PERIOD    4
                    SECONDS     MINUTES      HOURS       DAYS        YEARS
                    -----------------------------------------------------------
   TIME STEP LENGTH 4.32000E+07 7.20000E+05  12000.      500.00      1.3689    
 STRESS PERIOD TIME 4.32000E+07 7.20000E+05  12000.      500.00      1.3689    
         TOTAL TIME 1.72800E+08 2.88000E+06  48000.      2000.0      5.4757    
1
1
                            STRESS PERIOD NO.    5, LENGTH =   500.0000    
                            -----------------------------------------------

                              NUMBER OF TIME STEPS =     1

                               MULTIPLIER FOR DELT =     1.000

                            INITIAL TIME STEP SIZE =   500.0000    

 WELL NO.  LAYER   ROW   COL   STRESS RATE         
 --------------------------------------------------
      1      1     41     41      0.4000E+05

      1 WELL 

 REUSING NON-PARAMETER SPECIFIED-HEAD DATA FROM LAST STRESS PERIOD


    260 TIME-VARIANT SPECIFIED-HEAD CELLS

 SOLVING FOR HEAD 
          0                 1           1            35   44     1       0.2097449311E-05      48   41    1       0.4758487921E-04      0.7512334520E-03      0.2130591090E-02      0.2097449311E-05

    ------------------------------------------------
       NWT REQUIRED            1 OUTER ITERATIONS 
       AND A TOTAL OF          1 INNER ITERATIONS.
    ------------------------------------------------

 OUTPUT CONTROL FOR STRESS PERIOD    5   TIME STEP    1
    SAVE HEAD FOR ALL LAYERS
    SAVE BUDGET
 UBDSV1 SAVING "         STORAGE" ON UNIT  53 AT TIME STEP  1, STRESS PERIOD   5
 UBDSV2 SAVING "   CONSTANT HEAD" ON UNIT  53 AT TIME STEP  1, STRESS PERIOD   5
 UBDSV1 SAVING "FLOW RIGHT FACE " ON UNIT  53 AT TIME STEP  1, STRESS PERIOD   5
 UBDSV1 SAVING "FLOW FRONT FACE " ON UNIT  53 AT TIME STEP  1, STRESS PERIOD   5

 HEAD WILL BE SAVED ON UNIT   51 AT END OF TIME STEP    1, STRESS PERIOD    5
1
  VOLUMETRIC BUDGET FOR ENTIRE MODEL AT END OF TIME STEP    1, STRESS PERIOD   5
  ------------------------------------------------------------------------------

     CUMULATIVE VOLUMES      L**3       RATES FOR THIS TIME STEP      L**3/T
     ------------------                 ------------------------

           IN:                                      IN:
           ---                                      ---
             STORAGE =       7.5606E-02               STORAGE =       5.5586E-05
       CONSTANT HEAD =       7.3399E-05         CONSTANT HEAD =       3.1292E-08
               WELLS =   100000000.0000                 WELLS =       40000.0000

            TOTAL IN =   100000000.0000              TOTAL IN =       40000.0000

          OUT:                                     OUT:
          ----                                     ----
             STORAGE =      154574.0938               STORAGE =       1.4270E-04
       CONSTANT HEAD =    99846392.0000         CONSTANT HEAD =       39999.9844
               WELLS =           0.0000                 WELLS =           0.0000

           TOTAL OUT =   100000968.0000             TOTAL OUT =       39999.9844

            IN - OUT =        -968.0000              IN - OUT =       1.5625E-02

 PERCENT DISCREPANCY =          -0.00     PERCENT DISCREPANCY =           0.00






         TIME SUMMARY AT END OF TIME STEP    1 IN STRESS PERIOD    5
                    SECONDS     MINUTES      HOURS       DAYS        YEARS
                    -----------------------------------------------------------
   TIME STEP LENGTH 4.32000E+07 7.20000E+05  12000.      500.00      1.3689    
 STRESS PERIOD TIME 4.32000E+07 7.20000E+05  12000.      500.00      1.3689    
         TOTAL TIME 2.16000E+08 3.60000E+06  60000.      2500.0      6.8446    
1
1
                            STRESS PERIOD NO.    6, LENGTH =   500.0000    
                            -----------------------------------------------

                              NUMBER OF TIME STEPS =     1

                               MULTIPLIER FOR DELT =     1.000

                            INITIAL TIME STEP SIZE =   500.0000    

 WELL NO.  LAYER   ROW   COL   STRESS RATE         
 --------------------------------------------------
      1      1     41     41      0.4000E+05

      1 WELL 

 REUSING NON-PARAMETER SPECIFIED-HEAD DATA FROM LAST STRESS PERIOD


    260 TIME-VARIANT SPECIFIED-HEAD CELLS

 SOLVING FOR HEAD 
          0                 1           1            41   40     1       0.9195565267E-06      47   40    1       0.1889394480E-04      0.3280493470E-03      0.7512334520E-03      0.9195565267E-06

    ------------------------------------------------
       NWT REQUIRED            1 OUTER ITERATIONS 
       AND A TOTAL OF          1 INNER ITERATIONS.
    ------------------------------------------------

 OUTPUT CONTROL FOR STRESS PERIOD    6   TIME STEP    1
    SAVE HEAD FOR ALL LAYERS
    SAVE BUDGET
 UBDSV1 SAVING "         STORAGE" ON UNIT  53 AT TIME STEP  1, STRESS PERIOD   6
 UBDSV2 SAVING "   CONSTANT HEAD" ON UNIT  53 AT TIME STEP  1, STRESS PERIOD   6
 UBDSV1 SAVING "FLOW RIGHT FACE " ON UNIT  53 AT TIME STEP  1, STRESS PERIOD   6
 UBDSV1 SAVING "FLOW FRONT FACE " ON UNIT  53 AT TIME STEP  1, STRESS PERIOD   6

 HEAD WILL BE SAVED ON UNIT   51 AT END OF TIME STEP    1, STRESS PERIOD    6
1
  VOLUMETRIC BUDGET FOR ENTIRE MODEL AT END OF TIME STEP    1, STRESS PERIOD   6
  ------------------------------------------------------------------------------

     CUMULATIVE VOLUMES      L**3       RATES FOR THIS TIME STEP      L**3/T
     ------------------                 ------------------------

           IN:                                      IN:
           ---                                      ---
             STORAGE =           0.1129               STORAGE =       7.4625E-05
       CONSTANT HEAD =       8.7780E-05         CONSTANT HEAD =       2.8763E-08
               WELLS =   120000000.0000                 WELLS =       40000.0000

            TOTAL IN =   120000000.0000              TOTAL IN =       40000.0000

          OUT:                                     OUT:
          ----                                     ----
             STORAGE =      154574.1562               STORAGE =       1.1038E-04
       CONSTANT HEAD =   119846392.0000         CONSTANT HEAD =       39999.9961
               WELLS =           0.0000                 WELLS =           0.0000

           TOTAL OUT =   120000968.0000             TOTAL OUT =       39999.9961

            IN - OUT =        -968.0000              IN - OUT =       3.9062E-03

 PERCENT DISCREPANCY =          -0.00     PERCENT DISCREPANCY =           0.00






         TIME SUMMARY AT END OF TIME STEP    1 IN STRESS PERIOD    6
                    SECONDS     MINUTES      HOURS       DAYS        YEARS
                    -----------------------------------------------------------
   TIME STEP LENGTH 4.32000E+07 7.20000E+05  12000.      500.00      1.3689    
 STRESS PERIOD TIME 4.32000E+07 7.20000E+05  12000.      500.00      1.3689    
         TOTAL TIME 2.59200E+08 4.32000E+06  72000.      3000.0      8.2136    
1
1
                            STRESS PERIOD NO.    7, LENGTH =   500.0000    
                            -----------------------------------------------

                              NUMBER OF TIME STEPS =     1

                               MULTIPLIER FOR DELT =     1.000

                            INITIAL TIME STEP SIZE =   500.0000    

 WELL NO.  LAYER   ROW   COL   STRESS RATE         
 --------------------------------------------------
      1      1     41     41      0.4000E+05

      1 WELL 

 REUSING NON-PARAMETER SPECIFIED-HEAD DATA FROM LAST STRESS PERIOD


    260 TIME-VARIANT SPECIFIED-HEAD CELLS

 SOLVING FOR HEAD 
          0                 1           1            39   50     1       0.2982724258E-06      49   46    1       0.7595925126E-05      0.1378255267E-03      0.3280493470E-03      0.2982724258E-06

    ------------------------------------------------
       NWT REQUIRED            1 OUTER ITERATIONS 
       AND A TOTAL OF          1 INNER ITERATIONS.
    ------------------------------------------------

 OUTPUT CONTROL FOR STRESS PERIOD    7   TIME STEP    1
    SAVE HEAD FOR ALL LAYERS
    SAVE BUDGET
 UBDSV1 SAVING "         STORAGE" ON UNIT  53 AT TIME STEP  1, STRESS PERIOD   7
 UBDSV2 SAVING "   CONSTANT HEAD" ON UNIT  53 AT TIME STEP  1, STRESS PERIOD   7
 UBDSV1 SAVING "FLOW RIGHT FACE " ON UNIT  53 AT TIME STEP  1, STRESS PERIOD   7
 UBDSV1 SAVING "FLOW FRONT FACE " ON UNIT  53 AT TIME STEP  1, STRESS PERIOD   7

 HEAD WILL BE SAVED ON UNIT   51 AT END OF TIME STEP    1, STRESS PERIOD    7
1
  VOLUMETRIC BUDGET FOR ENTIRE MODEL AT END OF TIME STEP    1, STRESS PERIOD   7
  ------------------------------------------------------------------------------

     CUMULATIVE VOLUMES      L**3       RATES FOR THIS TIME STEP      L**3/T
     ------------------                 ------------------------

           IN:                                      IN:
           ---                                      ---
             STORAGE =           0.1551               STORAGE =       8.4379E-05
       CONSTANT HEAD =       1.0041E-04         CONSTANT HEAD =       2.5253E-08
               WELLS =   140000000.0000                 WELLS =       40000.0000

            TOTAL IN =   140000000.0000              TOTAL IN =       40000.0000

          OUT:                                     OUT:
          ----                                     ----
             STORAGE =      154574.2031               STORAGE =       9.8603E-05
       CONSTANT HEAD =   139846384.0000         CONSTANT HEAD =       39999.9961
               WELLS =           0.0000                 WELLS =           0.0000

           TOTAL OUT =   140000960.0000             TOTAL OUT =       39999.9961

            IN - OUT =        -960.0000              IN - OUT =       3.9062E-03

 PERCENT DISCREPANCY =          -0.00     PERCENT DISCREPANCY =           0.00






         TIME SUMMARY AT END OF TIME STEP    1 IN STRESS PERIOD    7
                    SECONDS     MINUTES      HOURS       DAYS        YEARS
                    -----------------------------------------------------------
   TIME STEP LENGTH 4.32000E+07 7.20000E+05  12000.      500.00      1.3689    
 STRESS PERIOD TIME 4.32000E+07 7.20000E+05  12000.      500.00      1.3689    
         TOTAL TIME 3.02400E+08 5.04000E+06  84000.      3500.0      9.5825    
1
1
                            STRESS PERIOD NO.    8, LENGTH =   500.0000    
                            -----------------------------------------------

                              NUMBER OF TIME STEPS =     1

                               MULTIPLIER FOR DELT =     1.000

                            INITIAL TIME STEP SIZE =   500.0000    

 WELL NO.  LAYER   ROW   COL   STRESS RATE         
 --------------------------------------------------
      1      1     41     41      0.4000E+05

      1 WELL 

 REUSING NON-PARAMETER SPECIFIED-HEAD DATA FROM LAST STRESS PERIOD


    260 TIME-VARIANT SPECIFIED-HEAD CELLS

 SOLVING FOR HEAD 
          0                 1           1            41   40     1       0.2224394453E-06      47   40    1       0.3641674994E-05      0.6483192651E-04      0.1378255267E-03      0.2224394453E-06

    ------------------------------------------------
       NWT REQUIRED            1 OUTER ITERATIONS 
       AND A TOTAL OF          1 INNER ITERATIONS.
    ------------------------------------------------

 OUTPUT CONTROL FOR STRESS PERIOD    8   TIME STEP    1
    SAVE HEAD FOR ALL LAYERS
    SAVE BUDGET
 UBDSV1 SAVING "         STORAGE" ON UNIT  53 AT TIME STEP  1, STRESS PERIOD   8
 UBDSV2 SAVING "   CONSTANT HEAD" ON UNIT  53 AT TIME STEP  1, STRESS PERIOD   8
 UBDSV1 SAVING "FLOW RIGHT FACE " ON UNIT  53 AT TIME STEP  1, STRESS PERIOD   8
 UBDSV1 SAVING "FLOW FRONT FACE " ON UNIT  53 AT TIME STEP  1, STRESS PERIOD   8

 HEAD WILL BE SAVED ON UNIT   51 AT END OF TIME STEP    1, STRESS PERIOD    8
1
  VOLUMETRIC BUDGET FOR ENTIRE MODEL AT END OF TIME STEP    1, STRESS PERIOD   8
  ------------------------------------------------------------------------------

     CUMULATIVE VOLUMES      L**3       RATES FOR THIS TIME STEP      L**3/T
     ------------------                 ------------------------

           IN:                                      IN:
           ---                                      ---
             STORAGE =           0.1984               STORAGE =       8.6654E-05
       CONSTANT HEAD =       1.1752E-04         CONSTANT HEAD =       3.4234E-08
               WELLS =   160000000.0000                 WELLS =       40000.0000

            TOTAL IN =   160000000.0000              TOTAL IN =       40000.0000

          OUT:                                     OUT:
          ----                                     ----
             STORAGE =      154574.2500               STORAGE =       9.6290E-05
       CONSTANT HEAD =   159846384.0000         CONSTANT HEAD =       40000.0000
               WELLS =           0.0000                 WELLS =           0.0000

           TOTAL OUT =   160000960.0000             TOTAL OUT =       40000.0000

            IN - OUT =        -960.0000              IN - OUT =           0.0000

 PERCENT DISCREPANCY =          -0.00     PERCENT DISCREPANCY =           0.00






         TIME SUMMARY AT END OF TIME STEP    1 IN STRESS PERIOD    8
                    SECONDS     MINUTES      HOURS       DAYS        YEARS
                    -----------------------------------------------------------
   TIME STEP LENGTH 4.32000E+07 7.20000E+05  12000.      500.00      1.3689    
 STRESS PERIOD TIME 4.32000E+07 7.20000E+05  12000.      500.00      1.3689    
         TOTAL TIME 3.45600E+08 5.76000E+06  96000.      4000.0      10.951    
1
1
                            STRESS PERIOD NO.    9, LENGTH =   500.0000    
                            -----------------------------------------------

                              NUMBER OF TIME STEPS =     1

                               MULTIPLIER FOR DELT =     1.000

                            INITIAL TIME STEP SIZE =   500.0000    

 WELL NO.  LAYER   ROW   COL   STRESS RATE         
 --------------------------------------------------
      1      1     41     41      0.4000E+05

      1 WELL 

 REUSING NON-PARAMETER SPECIFIED-HEAD DATA FROM LAST STRESS PERIOD


    260 TIME-VARIANT SPECIFIED-HEAD CELLS

 SOLVING FOR HEAD 
          0                 1           1            39   52     1       0.4139114230E-07      49   50    1       0.1569016604E-05      0.2426918523E-04      0.6483192651E-04      0.4139114230E-07

    ------------------------------------------------
       NWT REQUIRED            1 OUTER ITERATIONS 
       AND A TOTAL OF          1 INNER ITERATIONS.
    ------------------------------------------------

 OUTPUT CONTROL FOR STRESS PERIOD    9   TIME STEP    1
    SAVE HEAD FOR ALL LAYERS
    SAVE BUDGET
 UBDSV1 SAVING "         STORAGE" ON UNIT  53 AT TIME STEP  1, STRESS PERIOD   9
 UBDSV2 SAVING "   CONSTANT HEAD" ON UNIT  53 AT TIME STEP  1, STRESS PERIOD   9
 UBDSV1 SAVING "FLOW RIGHT FACE " ON UNIT  53 AT TIME STEP  1, STRESS PERIOD   9
 UBDSV1 SAVING "FLOW FRONT FACE " ON UNIT  53 AT TIME STEP  1, STRESS PERIOD   9

 HEAD WILL BE SAVED ON UNIT   51 AT END OF TIME STEP    1, STRESS PERIOD    9
1
  VOLUMETRIC BUDGET FOR ENTIRE MODEL AT END OF TIME STEP    1, STRESS PERIOD   9
  ------------------------------------------------------------------------------

     CUMULATIVE VOLUMES      L**3       RATES FOR THIS TIME STEP      L**3/T
     ------------------                 ------------------------

           IN:                                      IN:
           ---                                      ---
             STORAGE =           0.2443               STORAGE =       9.1784E-05
       CONSTANT HEAD =       1.3103E-04         CONSTANT HEAD =       2.7015E-08
               WELLS =   180000000.0000                 WELLS =       40000.0000

            TOTAL IN =   180000000.0000              TOTAL IN =       40000.0000

          OUT:                                     OUT:
          ----                                     ----
             STORAGE =      154574.2969               STORAGE =       9.0921E-05
       CONSTANT HEAD =   179846384.0000         CONSTANT HEAD =       40000.0000
               WELLS =           0.0000                 WELLS =           0.0000

           TOTAL OUT =   180000960.0000             TOTAL OUT =       40000.0000

            IN - OUT =        -960.0000              IN - OUT =           0.0000

 PERCENT DISCREPANCY =          -0.00     PERCENT DISCREPANCY =           0.00






         TIME SUMMARY AT END OF TIME STEP    1 IN STRESS PERIOD    9
                    SECONDS     MINUTES      HOURS       DAYS        YEARS
                    -----------------------------------------------------------
   TIME STEP LENGTH 4.32000E+07 7.20000E+05  12000.      500.00      1.3689    
 STRESS PERIOD TIME 4.32000E+07 7.20000E+05  12000.      500.00      1.3689    
         TOTAL TIME 3.88800E+08 6.48000E+06 1.08000E+05  4500.0      12.320    
1
1
                            STRESS PERIOD NO.   10, LENGTH =   500.0000    
                            -----------------------------------------------

                              NUMBER OF TIME STEPS =     1

                               MULTIPLIER FOR DELT =     1.000

                            INITIAL TIME STEP SIZE =   500.0000    

 WELL NO.  LAYER   ROW   COL   STRESS RATE         
 --------------------------------------------------
      1      1     41     41      0.4000E+05

      1 WELL 

 REUSING NON-PARAMETER SPECIFIED-HEAD DATA FROM LAST STRESS PERIOD


    260 TIME-VARIANT SPECIFIED-HEAD CELLS

 SOLVING FOR HEAD 
          0                 1           1            41   40     1       0.5214912171E-07      45   40    1       0.5519250408E-06      0.1146507744E-04      0.2426918523E-04      0.5214912171E-07

    ------------------------------------------------
       NWT REQUIRED            1 OUTER ITERATIONS 
       AND A TOTAL OF          1 INNER ITERATIONS.
    ------------------------------------------------

 OUTPUT CONTROL FOR STRESS PERIOD   10   TIME STEP    1
    SAVE HEAD FOR ALL LAYERS
    SAVE BUDGET
 UBDSV1 SAVING "         STORAGE" ON UNIT  53 AT TIME STEP  1, STRESS PERIOD  10
 UBDSV2 SAVING "   CONSTANT HEAD" ON UNIT  53 AT TIME STEP  1, STRESS PERIOD  10
 UBDSV1 SAVING "FLOW RIGHT FACE " ON UNIT  53 AT TIME STEP  1, STRESS PERIOD  10
 UBDSV1 SAVING "FLOW FRONT FACE " ON UNIT  53 AT TIME STEP  1, STRESS PERIOD  10

 HEAD WILL BE SAVED ON UNIT   51 AT END OF TIME STEP    1, STRESS PERIOD   10
1
  VOLUMETRIC BUDGET FOR ENTIRE MODEL AT END OF TIME STEP    1, STRESS PERIOD  10
  ------------------------------------------------------------------------------

     CUMULATIVE VOLUMES      L**3       RATES FOR THIS TIME STEP      L**3/T
     ------------------                 ------------------------

           IN:                                      IN:
           ---                                      ---
             STORAGE =           0.2903               STORAGE =       9.1919E-05
       CONSTANT HEAD =       1.4643E-04         CONSTANT HEAD =       3.0795E-08
               WELLS =   200000000.0000                 WELLS =       40000.0000

            TOTAL IN =   200000000.0000              TOTAL IN =       40000.0000

          OUT:                                     OUT:
          ----                                     ----
             STORAGE =      154574.3438               STORAGE =       9.0784E-05
       CONSTANT HEAD =   199846384.0000         CONSTANT HEAD =       40000.0000
               WELLS =           0.0000                 WELLS =           0.0000

           TOTAL OUT =   200000960.0000             TOTAL OUT =       40000.0000

            IN - OUT =        -960.0000              IN - OUT =           0.0000

 PERCENT DISCREPANCY =          -0.00     PERCENT DISCREPANCY =           0.00






         TIME SUMMARY AT END OF TIME STEP    1 IN STRESS PERIOD   10
                    SECONDS     MINUTES      HOURS       DAYS        YEARS
                    -----------------------------------------------------------
   TIME STEP LENGTH 4.32000E+07 7.20000E+05  12000.      500.00      1.3689    
 STRESS PERIOD TIME 4.32000E+07 7.20000E+05  12000.      500.00      1.3689    
         TOTAL TIME 4.32000E+08 7.20000E+06 1.20000E+05  5000.0      13.689    
1

 Run end date and time (yyyy/mm/dd hh:mm:ss): 2018/07/12 14:07:33
 Elapsed run time:  0.138 Seconds

